MODEL 1
REMARK VINA RESULT:      -1.5      0.000      0.000
REMARK  0 active torsions:
REMARK  status: ('A' for Active; 'I' for Inactive)
ROOT
ATOM      1  N   UNL d   1      17.421  30.495  -1.988  0.00  0.00    -0.084 N 
ATOM      2  H   UNL d   1      17.224  29.976  -1.124  0.00  0.00     0.271 HD
ATOM      3  H   UNL d   1      16.666  30.333  -2.664  0.00  0.00     0.271 HD
ATOM      4  H   UNL d   1      18.311  30.173  -2.384  0.00  0.00     0.271 HD
ATOM      5  H   UNL d   1      17.483  31.498  -1.777  0.00  0.00     0.271 HD
ENDROOT
TORSDOF 0
ENDMDL
MODEL 2
REMARK VINA RESULT:      -1.4     27.067     27.067
REMARK  0 active torsions:
REMARK  status: ('A' for Active; 'I' for Inactive)
ROOT
ATOM      1  N   UNL d   1      -5.049  28.475 -16.942  0.00  0.00    -0.084 N 
ATOM      2  H   UNL d   1      -5.874  28.776 -16.409  0.00  0.00     0.271 HD
ATOM      3  H   UNL d   1      -5.010  27.449 -16.961  0.00  0.00     0.271 HD
ATOM      4  H   UNL d   1      -4.201  28.842 -16.496  0.00  0.00     0.271 HD
ATOM      5  H   UNL d   1      -5.113  28.833 -17.903  0.00  0.00     0.271 HD
ENDROOT
TORSDOF 0
ENDMDL
MODEL 3
REMARK VINA RESULT:      -1.4     44.659     44.659
REMARK  0 active torsions:
REMARK  status: ('A' for Active; 'I' for Inactive)
ROOT
ATOM      1  N   UNL d   1     -27.225  31.005  -1.052  0.00  0.00    -0.084 N 
ATOM      2  H   UNL d   1     -26.801  30.951  -1.986  0.00  0.00     0.271 HD
ATOM      3  H   UNL d   1     -26.682  31.650  -0.466  0.00  0.00     0.271 HD
ATOM      4  H   UNL d   1     -27.229  30.073  -0.624  0.00  0.00     0.271 HD
ATOM      5  H   UNL d   1     -28.190  31.348  -1.135  0.00  0.00     0.271 HD
ENDROOT
TORSDOF 0
ENDMDL
MODEL 4
REMARK VINA RESULT:      -1.4     44.622     44.622
REMARK  0 active torsions:
REMARK  status: ('A' for Active; 'I' for Inactive)
ROOT
ATOM      1  N   UNL d   1     -26.179  23.987  -8.898  0.00  0.00    -0.084 N 
ATOM      2  H   UNL d   1     -26.377  23.468  -8.034  0.00  0.00     0.271 HD
ATOM      3  H   UNL d   1     -26.934  23.825  -9.575  0.00  0.00     0.271 HD
ATOM      4  H   UNL d   1     -25.289  23.665  -9.295  0.00  0.00     0.271 HD
ATOM      5  H   UNL d   1     -26.117  24.990  -8.688  0.00  0.00     0.271 HD
ENDROOT
TORSDOF 0
ENDMDL
MODEL 5
REMARK VINA RESULT:      -1.4     10.294     10.294
REMARK  0 active torsions:
REMARK  status: ('A' for Active; 'I' for Inactive)
ROOT
ATOM      1  N   UNL d   1      16.711  22.295   4.196  0.00  0.00    -0.084 N 
ATOM      2  H   UNL d   1      17.711  22.489   4.330  0.00  0.00     0.271 HD
ATOM      3  H   UNL d   1      16.435  21.500   4.784  0.00  0.00     0.271 HD
ATOM      4  H   UNL d   1      16.536  22.070   3.210  0.00  0.00     0.271 HD
ATOM      5  H   UNL d   1      16.164  23.123   4.460  0.00  0.00     0.271 HD
ENDROOT
TORSDOF 0
ENDMDL
MODEL 6
REMARK VINA RESULT:      -1.4     27.077     27.077
REMARK  0 active torsions:
REMARK  status: ('A' for Active; 'I' for Inactive)
ROOT
ATOM      1  N   UNL d   1      -4.500  25.148  12.980  0.00  0.00    -0.084 N 
ATOM      2  H   UNL d   1      -5.325  25.449  13.512  0.00  0.00     0.271 HD
ATOM      3  H   UNL d   1      -4.461  24.122  12.961  0.00  0.00     0.271 HD
ATOM      4  H   UNL d   1      -3.652  25.515  13.426  0.00  0.00     0.271 HD
ATOM      5  H   UNL d   1      -4.564  25.506  12.019  0.00  0.00     0.271 HD
ENDROOT
TORSDOF 0
ENDMDL
MODEL 7
REMARK VINA RESULT:      -1.3     11.692     11.692
REMARK  0 active torsions:
REMARK  status: ('A' for Active; 'I' for Inactive)
ROOT
ATOM      1  N   UNL d   1       9.758  22.311  -5.305  0.00  0.00    -0.084 N 
ATOM      2  H   UNL d   1      10.183  22.257  -6.239  0.00  0.00     0.271 HD
ATOM      3  H   UNL d   1      10.301  22.956  -4.719  0.00  0.00     0.271 HD
ATOM      4  H   UNL d   1       9.754  21.379  -4.877  0.00  0.00     0.271 HD
ATOM      5  H   UNL d   1       8.793  22.654  -5.388  0.00  0.00     0.271 HD
ENDROOT
TORSDOF 0
ENDMDL
MODEL 8
REMARK VINA RESULT:      -1.3     37.715     37.715
REMARK  0 active torsions:
REMARK  status: ('A' for Active; 'I' for Inactive)
ROOT
ATOM      1  N   UNL d   1     -19.226  21.846   0.158  0.00  0.00    -0.084 N 
ATOM      2  H   UNL d   1     -19.422  22.826   0.391  0.00  0.00     0.271 HD
ATOM      3  H   UNL d   1     -18.397  21.530   0.676  0.00  0.00     0.271 HD
ATOM      4  H   UNL d   1     -19.052  21.762  -0.850  0.00  0.00     0.271 HD
ATOM      5  H   UNL d   1     -20.032  21.264   0.416  0.00  0.00     0.271 HD
ENDROOT
TORSDOF 0
ENDMDL
MODEL 9
REMARK VINA RESULT:      -1.2     10.348     10.348
REMARK  0 active torsions:
REMARK  status: ('A' for Active; 'I' for Inactive)
ROOT
ATOM      1  N   UNL d   1      18.401  22.716   4.766  0.00  0.00    -0.084 N 
ATOM      2  H   UNL d   1      19.024  22.715   5.583  0.00  0.00     0.271 HD
ATOM      3  H   UNL d   1      17.585  23.309   4.960  0.00  0.00     0.271 HD
ATOM      4  H   UNL d   1      18.090  21.758   4.572  0.00  0.00     0.271 HD
ATOM      5  H   UNL d   1      18.906  23.084   3.952  0.00  0.00     0.271 HD
ENDROOT
TORSDOF 0
ENDMDL
