MODEL 1
REMARK VINA RESULT:      -4.5      0.000      0.000
REMARK  6 active torsions:
REMARK  status: ('A' for Active; 'I' for Inactive)
REMARK    1  A    between atoms: N_1  and  C_2 
REMARK    2  A    between atoms: C_3  and  C_2 
REMARK    3  A    between atoms: C_3  and  C_4 
REMARK    4  A    between atoms: C_3  and  O_5 
REMARK    5  A    between atoms: C_9  and  O_11 
REMARK    6  A    between atoms: C_10  and  O_12 
ROOT
ATOM      1  C   UNL d   1       7.109  -9.488 -34.555  0.00  0.00    -0.025 A 
ATOM      2  C   UNL d   1       8.410  -9.111 -34.174  0.00  0.00     0.012 A 
ATOM      3  C   UNL d   1       6.042  -8.626 -34.223  0.00  0.00     0.049 A 
ATOM      4  C   UNL d   1       8.641  -7.933 -33.457  0.00  0.00     0.040 A 
ATOM      5  C   UNL d   1       6.280  -7.455 -33.514  0.00  0.00     0.099 A 
ATOM      6  C   UNL d   1       7.574  -7.120 -33.121  0.00  0.00     0.098 A 
ENDROOT
BRANCH   1   7
ATOM      7  C   UNL d   1       6.797 -10.783 -35.292  0.00  0.00     0.179 C 
BRANCH   7   8
ATOM      8  O   UNL d   1       6.605 -11.814 -34.317  0.00  0.00    -0.389 OA
ATOM      9  H   UNL d   1       5.923 -11.494 -33.701  0.00  0.00     0.210 HD
ENDBRANCH   7   8
BRANCH   7  10
ATOM     10  C   UNL d   1       5.575 -10.736 -36.248  0.00  0.00     0.303 C 
BRANCH  10  11
ATOM     11  N   UNL d   1       5.042 -12.065 -36.572  0.00  0.00     0.081 N 
ATOM     12  H   UNL d   1       5.596 -12.484 -37.316  0.00  0.00     0.312 HD
ATOM     13  H   UNL d   1       4.090 -11.962 -36.926  0.00  0.00     0.312 HD
ENDBRANCH  10  11
ENDBRANCH   7  10
ENDBRANCH   1   7
BRANCH   5  14
ATOM     14  O   UNL d   1       5.276  -6.592 -33.174  0.00  0.00    -0.358 OA
ATOM     15  H   UNL d   1       5.380  -5.789 -33.712  0.00  0.00     0.217 HD
ENDBRANCH   5  14
BRANCH   6  16
ATOM     16  O   UNL d   1       7.800  -5.982 -32.401  0.00  0.00    -0.358 OA
ATOM     17  H   UNL d   1       6.949  -5.805 -31.953  0.00  0.00     0.217 HD
ENDBRANCH   6  16
TORSDOF 6
ENDMDL
MODEL 2
REMARK VINA RESULT:      -4.4     20.326     21.464
REMARK  6 active torsions:
REMARK  status: ('A' for Active; 'I' for Inactive)
REMARK    1  A    between atoms: N_1  and  C_2 
REMARK    2  A    between atoms: C_3  and  C_2 
REMARK    3  A    between atoms: C_3  and  C_4 
REMARK    4  A    between atoms: C_3  and  O_5 
REMARK    5  A    between atoms: C_9  and  O_11 
REMARK    6  A    between atoms: C_10  and  O_12 
ROOT
ATOM      1  C   UNL d   1     -11.888  -6.739 -23.026  0.00  0.00    -0.025 A 
ATOM      2  C   UNL d   1     -11.831  -5.474 -23.638  0.00  0.00     0.012 A 
ATOM      3  C   UNL d   1     -10.689  -7.474 -22.902  0.00  0.00     0.049 A 
ATOM      4  C   UNL d   1     -10.629  -4.967 -24.141  0.00  0.00     0.040 A 
ATOM      5  C   UNL d   1      -9.497  -6.962 -23.402  0.00  0.00     0.099 A 
ATOM      6  C   UNL d   1      -9.474  -5.719 -24.031  0.00  0.00     0.098 A 
ENDROOT
BRANCH   1   7
ATOM      7  C   UNL d   1     -13.178  -7.358 -22.506  0.00  0.00     0.179 C 
BRANCH   7   8
ATOM      8  O   UNL d   1     -13.667  -8.268 -23.500  0.00  0.00    -0.389 OA
ATOM      9  H   UNL d   1     -14.609  -8.064 -23.627  0.00  0.00     0.210 HD
ENDBRANCH   7   8
BRANCH   7  10
ATOM     10  C   UNL d   1     -13.072  -8.087 -21.140  0.00  0.00     0.303 C 
BRANCH  10  11
ATOM     11  N   UNL d   1     -13.515  -9.486 -21.195  0.00  0.00     0.081 N 
ATOM     12  H   UNL d   1     -13.367  -9.857 -22.132  0.00  0.00     0.312 HD
ATOM     13  H   UNL d   1     -14.520  -9.522 -21.014  0.00  0.00     0.312 HD
ENDBRANCH  10  11
ENDBRANCH   7  10
ENDBRANCH   1   7
BRANCH   5  14
ATOM     14  O   UNL d   1      -8.315  -7.639 -23.302  0.00  0.00    -0.358 OA
ATOM     15  H   UNL d   1      -8.137  -8.054 -24.163  0.00  0.00     0.217 HD
ENDBRANCH   5  14
BRANCH   6  16
ATOM     16  O   UNL d   1      -8.306  -5.231 -24.544  0.00  0.00    -0.358 OA
ATOM     17  H   UNL d   1      -8.142  -4.411 -24.037  0.00  0.00     0.217 HD
ENDBRANCH   6  16
TORSDOF 6
ENDMDL
MODEL 3
REMARK VINA RESULT:      -4.4      2.427      4.913
REMARK  6 active torsions:
REMARK  status: ('A' for Active; 'I' for Inactive)
REMARK    1  A    between atoms: N_1  and  C_2 
REMARK    2  A    between atoms: C_3  and  C_2 
REMARK    3  A    between atoms: C_3  and  C_4 
REMARK    4  A    between atoms: C_3  and  O_5 
REMARK    5  A    between atoms: C_9  and  O_11 
REMARK    6  A    between atoms: C_10  and  O_12 
ROOT
ATOM      1  C   UNL d   1       6.664  -8.071 -34.877  0.00  0.00    -0.025 A 
ATOM      2  C   UNL d   1       5.861  -8.023 -36.031  0.00  0.00     0.012 A 
ATOM      3  C   UNL d   1       6.946  -9.334 -34.312  0.00  0.00     0.049 A 
ATOM      4  C   UNL d   1       5.327  -9.190 -36.589  0.00  0.00     0.040 A 
ATOM      5  C   UNL d   1       6.414 -10.488 -34.875  0.00  0.00     0.099 A 
ATOM      6  C   UNL d   1       5.597 -10.411 -36.000  0.00  0.00     0.098 A 
ENDROOT
BRANCH   1   7
ATOM      7  C   UNL d   1       7.229  -6.829 -34.201  0.00  0.00     0.179 C 
BRANCH   7   8
ATOM      8  O   UNL d   1       6.698  -5.678 -34.871  0.00  0.00    -0.389 OA
ATOM      9  H   UNL d   1       5.885  -5.967 -35.321  0.00  0.00     0.210 HD
ENDBRANCH   7   8
BRANCH   7  10
ATOM     10  C   UNL d   1       6.963  -6.712 -32.677  0.00  0.00     0.303 C 
BRANCH  10  11
ATOM     11  N   UNL d   1       5.535  -6.665 -32.341  0.00  0.00     0.081 N 
ATOM     12  H   UNL d   1       4.985  -6.558 -33.191  0.00  0.00     0.312 HD
ATOM     13  H   UNL d   1       5.358  -5.842 -31.763  0.00  0.00     0.312 HD
ENDBRANCH  10  11
ENDBRANCH   7  10
ENDBRANCH   1   7
BRANCH   5  14
ATOM     14  O   UNL d   1       6.663 -11.729 -34.361  0.00  0.00    -0.358 OA
ATOM     15  H   UNL d   1       6.712 -11.646 -33.394  0.00  0.00     0.217 HD
ENDBRANCH   5  14
BRANCH   6  16
ATOM     16  O   UNL d   1       5.055 -11.545 -36.534  0.00  0.00    -0.358 OA
ATOM     17  H   UNL d   1       4.797 -12.080 -35.756  0.00  0.00     0.217 HD
ENDBRANCH   6  16
TORSDOF 6
ENDMDL
MODEL 4
REMARK VINA RESULT:      -4.2     26.553     27.228
REMARK  6 active torsions:
REMARK  status: ('A' for Active; 'I' for Inactive)
REMARK    1  A    between atoms: N_1  and  C_2 
REMARK    2  A    between atoms: C_3  and  C_2 
REMARK    3  A    between atoms: C_3  and  C_4 
REMARK    4  A    between atoms: C_3  and  O_5 
REMARK    5  A    between atoms: C_9  and  O_11 
REMARK    6  A    between atoms: C_10  and  O_12 
ROOT
ATOM      1  C   UNL d   1     -19.926 -12.027 -31.376  0.00  0.00    -0.025 A 
ATOM      2  C   UNL d   1     -19.984 -13.431 -31.310  0.00  0.00     0.012 A 
ATOM      3  C   UNL d   1     -19.758 -11.309 -30.172  0.00  0.00     0.049 A 
ATOM      4  C   UNL d   1     -19.910 -14.101 -30.084  0.00  0.00     0.040 A 
ATOM      5  C   UNL d   1     -19.682 -11.982 -28.959  0.00  0.00     0.099 A 
ATOM      6  C   UNL d   1     -19.773 -13.372 -28.917  0.00  0.00     0.098 A 
ENDROOT
BRANCH   1   7
ATOM      7  C   UNL d   1     -20.050 -11.247 -32.678  0.00  0.00     0.179 C 
BRANCH   7   8
ATOM      8  O   UNL d   1     -21.432 -11.229 -33.055  0.00  0.00    -0.389 OA
ATOM      9  H   UNL d   1     -21.701 -10.295 -33.086  0.00  0.00     0.210 HD
ENDBRANCH   7   8
BRANCH   7  10
ATOM     10  C   UNL d   1     -19.500  -9.796 -32.648  0.00  0.00     0.303 C 
BRANCH  10  11
ATOM     11  N   UNL d   1     -18.601  -9.495 -33.769  0.00  0.00     0.081 N 
ATOM     12  H   UNL d   1     -17.763  -9.033 -33.423  0.00  0.00     0.312 HD
ATOM     13  H   UNL d   1     -19.067  -8.841 -34.400  0.00  0.00     0.312 HD
ENDBRANCH  10  11
ENDBRANCH   7  10
ENDBRANCH   1   7
BRANCH   5  14
ATOM     14  O   UNL d   1     -19.519 -11.327 -27.771  0.00  0.00    -0.358 OA
ATOM     15  H   UNL d   1     -19.624 -11.977 -27.056  0.00  0.00     0.217 HD
ENDBRANCH   5  14
BRANCH   6  16
ATOM     16  O   UNL d   1     -19.725 -14.027 -27.720  0.00  0.00    -0.358 OA
ATOM     17  H   UNL d   1     -20.106 -13.393 -27.080  0.00  0.00     0.217 HD
ENDBRANCH   6  16
TORSDOF 6
ENDMDL
MODEL 5
REMARK VINA RESULT:      -4.2     20.403     21.708
REMARK  6 active torsions:
REMARK  status: ('A' for Active; 'I' for Inactive)
REMARK    1  A    between atoms: N_1  and  C_2 
REMARK    2  A    between atoms: C_3  and  C_2 
REMARK    3  A    between atoms: C_3  and  C_4 
REMARK    4  A    between atoms: C_3  and  O_5 
REMARK    5  A    between atoms: C_9  and  O_11 
REMARK    6  A    between atoms: C_10  and  O_12 
ROOT
ATOM      1  C   UNL d   1     -11.151  -5.656 -23.587  0.00  0.00    -0.025 A 
ATOM      2  C   UNL d   1     -10.636  -6.691 -22.785  0.00  0.00     0.012 A 
ATOM      3  C   UNL d   1     -12.496  -5.744 -24.006  0.00  0.00     0.049 A 
ATOM      4  C   UNL d   1     -11.422  -7.795 -22.436  0.00  0.00     0.040 A 
ATOM      5  C   UNL d   1     -13.271  -6.843 -23.653  0.00  0.00     0.099 A 
ATOM      6  C   UNL d   1     -12.728  -7.869 -22.883  0.00  0.00     0.098 A 
ENDROOT
BRANCH   1   7
ATOM      7  C   UNL d   1     -10.326  -4.458 -24.035  0.00  0.00     0.179 C 
BRANCH   7   8
ATOM      8  O   UNL d   1      -9.841  -3.789 -22.864  0.00  0.00    -0.389 OA
ATOM      9  H   UNL d   1      -8.874  -3.729 -22.956  0.00  0.00     0.210 HD
ENDBRANCH   7   8
BRANCH   7  10
ATOM     10  C   UNL d   1      -9.138  -4.776 -24.982  0.00  0.00     0.303 C 
BRANCH  10  11
ATOM     11  N   UNL d   1      -7.852  -4.880 -24.281  0.00  0.00     0.081 N 
ATOM     12  H   UNL d   1      -7.413  -3.962 -24.230  0.00  0.00     0.312 HD
ATOM     13  H   UNL d   1      -7.228  -5.481 -24.822  0.00  0.00     0.312 HD
ENDBRANCH  10  11
ENDBRANCH   7  10
ENDBRANCH   1   7
BRANCH   5  14
ATOM     14  O   UNL d   1     -14.576  -6.967 -24.037  0.00  0.00    -0.358 OA
ATOM     15  H   UNL d   1     -15.034  -7.497 -23.363  0.00  0.00     0.217 HD
ENDBRANCH   5  14
BRANCH   6  16
ATOM     16  O   UNL d   1     -13.484  -8.959 -22.561  0.00  0.00    -0.358 OA
ATOM     17  H   UNL d   1     -14.310  -8.842 -23.073  0.00  0.00     0.217 HD
ENDBRANCH   6  16
TORSDOF 6
ENDMDL
MODEL 6
REMARK VINA RESULT:      -4.0     40.420     41.562
REMARK  6 active torsions:
REMARK  status: ('A' for Active; 'I' for Inactive)
REMARK    1  A    between atoms: N_1  and  C_2 
REMARK    2  A    between atoms: C_3  and  C_2 
REMARK    3  A    between atoms: C_3  and  C_4 
REMARK    4  A    between atoms: C_3  and  O_5 
REMARK    5  A    between atoms: C_9  and  O_11 
REMARK    6  A    between atoms: C_10  and  O_12 
ROOT
ATOM      1  C   UNL d   1      29.344 -34.328 -11.288  0.00  0.00    -0.025 A 
ATOM      2  C   UNL d   1      30.360 -33.970 -10.383  0.00  0.00     0.012 A 
ATOM      3  C   UNL d   1      29.694 -35.122 -12.402  0.00  0.00     0.049 A 
ATOM      4  C   UNL d   1      31.687 -34.359 -10.594  0.00  0.00     0.040 A 
ATOM      5  C   UNL d   1      31.013 -35.508 -12.603  0.00  0.00     0.099 A 
ATOM      6  C   UNL d   1      32.006 -35.113 -11.708  0.00  0.00     0.098 A 
ENDROOT
BRANCH   1   7
ATOM      7  C   UNL d   1      27.894 -33.890 -11.132  0.00  0.00     0.179 C 
BRANCH   7   8
ATOM      8  O   UNL d   1      27.057 -34.929 -11.654  0.00  0.00    -0.389 OA
ATOM      9  H   UNL d   1      26.352 -35.075 -10.999  0.00  0.00     0.210 HD
ENDBRANCH   7   8
BRANCH   7  10
ATOM     10  C   UNL d   1      27.449 -33.540  -9.687  0.00  0.00     0.303 C 
BRANCH  10  11
ATOM     11  N   UNL d   1      27.263 -32.099  -9.473  0.00  0.00     0.081 N 
ATOM     12  H   UNL d   1      26.276 -31.899  -9.327  0.00  0.00     0.312 HD
ATOM     13  H   UNL d   1      27.550 -31.600 -10.316  0.00  0.00     0.312 HD
ENDBRANCH  10  11
ENDBRANCH   7  10
ENDBRANCH   1   7
BRANCH   5  14
ATOM     14  O   UNL d   1      31.394 -36.276 -13.666  0.00  0.00    -0.358 OA
ATOM     15  H   UNL d   1      31.333 -35.727 -14.466  0.00  0.00     0.217 HD
ENDBRANCH   5  14
BRANCH   6  16
ATOM     16  O   UNL d   1      33.306 -35.472 -11.923  0.00  0.00    -0.358 OA
ATOM     17  H   UNL d   1      33.311 -36.444 -11.812  0.00  0.00     0.217 HD
ENDBRANCH   6  16
TORSDOF 6
ENDMDL
MODEL 7
REMARK VINA RESULT:      -4.0     21.039     22.194
REMARK  6 active torsions:
REMARK  status: ('A' for Active; 'I' for Inactive)
REMARK    1  A    between atoms: N_1  and  C_2 
REMARK    2  A    between atoms: C_3  and  C_2 
REMARK    3  A    between atoms: C_3  and  C_4 
REMARK    4  A    between atoms: C_3  and  O_5 
REMARK    5  A    between atoms: C_9  and  O_11 
REMARK    6  A    between atoms: C_10  and  O_12 
ROOT
ATOM      1  C   UNL d   1     -12.750  -6.362 -23.569  0.00  0.00    -0.025 A 
ATOM      2  C   UNL d   1     -12.324  -5.202 -24.242  0.00  0.00     0.012 A 
ATOM      3  C   UNL d   1     -11.765  -7.222 -23.036  0.00  0.00     0.049 A 
ATOM      4  C   UNL d   1     -10.964  -4.921 -24.410  0.00  0.00     0.040 A 
ATOM      5  C   UNL d   1     -10.416  -6.934 -23.204  0.00  0.00     0.099 A 
ATOM      6  C   UNL d   1     -10.021  -5.795 -23.902  0.00  0.00     0.098 A 
ENDROOT
BRANCH   1   7
ATOM      7  C   UNL d   1     -14.215  -6.740 -23.401  0.00  0.00     0.179 C 
BRANCH   7   8
ATOM      8  O   UNL d   1     -14.690  -6.150 -22.185  0.00  0.00    -0.389 OA
ATOM      9  H   UNL d   1     -14.937  -5.233 -22.396  0.00  0.00     0.210 HD
ENDBRANCH   7   8
BRANCH   7  10
ATOM     10  C   UNL d   1     -15.150  -6.340 -24.573  0.00  0.00     0.303 C 
BRANCH  10  11
ATOM     11  N   UNL d   1     -16.541  -6.126 -24.155  0.00  0.00     0.081 N 
ATOM     12  H   UNL d   1     -17.058  -5.666 -24.902  0.00  0.00     0.312 HD
ATOM     13  H   UNL d   1     -16.552  -5.496 -23.351  0.00  0.00     0.312 HD
ENDBRANCH  10  11
ENDBRANCH   7  10
ENDBRANCH   1   7
BRANCH   5  14
ATOM     14  O   UNL d   1      -9.431  -7.739 -22.704  0.00  0.00    -0.358 OA
ATOM     15  H   UNL d   1      -8.982  -7.251 -21.993  0.00  0.00     0.217 HD
ENDBRANCH   5  14
BRANCH   6  16
ATOM     16  O   UNL d   1      -8.694  -5.529 -24.088  0.00  0.00    -0.358 OA
ATOM     17  H   UNL d   1      -8.242  -6.355 -23.822  0.00  0.00     0.217 HD
ENDBRANCH   6  16
TORSDOF 6
ENDMDL
MODEL 8
REMARK VINA RESULT:      -4.0     11.387     12.771
REMARK  6 active torsions:
REMARK  status: ('A' for Active; 'I' for Inactive)
REMARK    1  A    between atoms: N_1  and  C_2 
REMARK    2  A    between atoms: C_3  and  C_2 
REMARK    3  A    between atoms: C_3  and  C_4 
REMARK    4  A    between atoms: C_3  and  O_5 
REMARK    5  A    between atoms: C_9  and  O_11 
REMARK    6  A    between atoms: C_10  and  O_12 
ROOT
ATOM      1  C   UNL d   1      14.182 -15.103 -26.751  0.00  0.00    -0.025 A 
ATOM      2  C   UNL d   1      15.040 -16.097 -26.247  0.00  0.00     0.012 A 
ATOM      3  C   UNL d   1      13.068 -15.509 -27.517  0.00  0.00     0.049 A 
ATOM      4  C   UNL d   1      14.817 -17.451 -26.521  0.00  0.00     0.040 A 
ATOM      5  C   UNL d   1      12.851 -16.856 -27.781  0.00  0.00     0.099 A 
ATOM      6  C   UNL d   1      13.733 -17.820 -27.295  0.00  0.00     0.098 A 
ENDROOT
BRANCH   1   7
ATOM      7  C   UNL d   1      14.406 -13.614 -26.525  0.00  0.00     0.179 C 
BRANCH   7   8
ATOM      8  O   UNL d   1      15.815 -13.361 -26.592  0.00  0.00    -0.389 OA
ATOM      9  H   UNL d   1      15.930 -12.398 -26.519  0.00  0.00     0.210 HD
ENDBRANCH   7   8
BRANCH   7  10
ATOM     10  C   UNL d   1      13.660 -12.665 -27.501  0.00  0.00     0.303 C 
BRANCH  10  11
ATOM     11  N   UNL d   1      12.403 -12.143 -26.951  0.00  0.00     0.081 N 
ATOM     12  H   UNL d   1      12.513 -11.957 -25.956  0.00  0.00     0.312 HD
ATOM     13  H   UNL d   1      11.679 -12.857 -27.045  0.00  0.00     0.312 HD
ENDBRANCH  10  11
ENDBRANCH   7  10
ENDBRANCH   1   7
BRANCH   5  14
ATOM     14  O   UNL d   1      11.785 -17.292 -28.515  0.00  0.00    -0.358 OA
ATOM     15  H   UNL d   1      11.027 -17.385 -27.912  0.00  0.00     0.217 HD
ENDBRANCH   5  14
BRANCH   6  16
ATOM     16  O   UNL d   1      13.532 -19.140 -27.580  0.00  0.00    -0.358 OA
ATOM     17  H   UNL d   1      12.789 -19.403 -27.000  0.00  0.00     0.217 HD
ENDBRANCH   6  16
TORSDOF 6
ENDMDL
MODEL 9
REMARK VINA RESULT:      -3.9     20.435     20.806
REMARK  6 active torsions:
REMARK  status: ('A' for Active; 'I' for Inactive)
REMARK    1  A    between atoms: N_1  and  C_2 
REMARK    2  A    between atoms: C_3  and  C_2 
REMARK    3  A    between atoms: C_3  and  C_4 
REMARK    4  A    between atoms: C_3  and  O_5 
REMARK    5  A    between atoms: C_9  and  O_11 
REMARK    6  A    between atoms: C_10  and  O_12 
ROOT
ATOM      1  C   UNL d   1       6.063 -15.620 -14.202  0.00  0.00    -0.025 A 
ATOM      2  C   UNL d   1       6.241 -14.617 -13.230  0.00  0.00     0.012 A 
ATOM      3  C   UNL d   1       6.593 -15.399 -15.491  0.00  0.00     0.049 A 
ATOM      4  C   UNL d   1       6.895 -13.420 -13.537  0.00  0.00     0.040 A 
ATOM      5  C   UNL d   1       7.245 -14.208 -15.788  0.00  0.00     0.099 A 
ATOM      6  C   UNL d   1       7.381 -13.218 -14.816  0.00  0.00     0.098 A 
ENDROOT
BRANCH   1   7
ATOM      7  C   UNL d   1       5.316 -16.919 -13.933  0.00  0.00     0.179 C 
BRANCH   7   8
ATOM      8  O   UNL d   1       4.357 -17.105 -14.981  0.00  0.00    -0.389 OA
ATOM      9  H   UNL d   1       3.478 -17.034 -14.572  0.00  0.00     0.210 HD
ENDBRANCH   7   8
BRANCH   7  10
ATOM     10  C   UNL d   1       6.200 -18.188 -13.806  0.00  0.00     0.303 C 
BRANCH  10  11
ATOM     11  N   UNL d   1       5.437 -19.389 -13.442  0.00  0.00     0.081 N 
ATOM     12  H   UNL d   1       6.072 -20.112 -13.109  0.00  0.00     0.312 HD
ATOM     13  H   UNL d   1       4.979 -19.755 -14.279  0.00  0.00     0.312 HD
ENDBRANCH  10  11
ENDBRANCH   7  10
ENDBRANCH   1   7
BRANCH   5  14
ATOM     14  O   UNL d   1       7.773 -13.955 -17.022  0.00  0.00    -0.358 OA
ATOM     15  H   UNL d   1       7.441 -14.635 -17.632  0.00  0.00     0.217 HD
ENDBRANCH   5  14
BRANCH   6  16
ATOM     16  O   UNL d   1       7.998 -12.039 -15.119  0.00  0.00    -0.358 OA
ATOM     17  H   UNL d   1       8.880 -12.304 -15.451  0.00  0.00     0.217 HD
ENDBRANCH   6  16
TORSDOF 6
ENDMDL
