MODEL 1
REMARK VINA RESULT:      -4.5      0.000      0.000
REMARK  2 active torsions:
REMARK  status: ('A' for Active; 'I' for Inactive)
REMARK    1  A    between atoms: C_2  and  O_1 
REMARK    2  A    between atoms: C_3  and  C_2 
ROOT
ATOM      1  C   UNL d   1       9.301 -25.090 -32.893  0.00  0.00     0.213 C 
ATOM      2  O   UNL d   1       9.788 -26.179 -32.675  0.00  0.00    -0.644 OA
ENDROOT
BRANCH   1   3
ATOM      3  C   UNL d   1       9.753 -24.183 -34.032  0.00  0.00     0.218 C 
ATOM      4  C   UNL d   1      10.327 -22.855 -33.652  0.00  0.00     0.103 C 
ATOM      5  O   UNL d   1       9.614 -24.597 -35.180  0.00  0.00    -0.286 OA
ENDBRANCH   1   3
BRANCH   1   6
ATOM      6  O   UNL d   1       8.309 -24.509 -32.192  0.00  0.00    -0.771 OA
ATOM      7  H   UNL d   1       8.309 -23.539 -32.376  0.00  0.00     0.168 HD
ENDBRANCH   1   6
TORSDOF 2
ENDMDL
MODEL 2
REMARK VINA RESULT:      -4.1      0.815      2.062
REMARK  2 active torsions:
REMARK  status: ('A' for Active; 'I' for Inactive)
REMARK    1  A    between atoms: C_2  and  O_1 
REMARK    2  A    between atoms: C_3  and  C_2 
ROOT
ATOM      1  C   UNL d   1       9.789 -24.968 -34.062  0.00  0.00     0.213 C 
ATOM      2  O   UNL d   1      10.205 -26.018 -33.619  0.00  0.00    -0.644 OA
ENDROOT
BRANCH   1   3
ATOM      3  C   UNL d   1       9.406 -23.781 -33.185  0.00  0.00     0.218 C 
ATOM      4  C   UNL d   1      10.061 -22.472 -33.495  0.00  0.00     0.103 C 
ATOM      5  O   UNL d   1       8.591 -23.975 -32.287  0.00  0.00    -0.286 OA
ENDBRANCH   1   3
BRANCH   1   6
ATOM      6  O   UNL d   1       9.600 -24.674 -35.363  0.00  0.00    -0.771 OA
ATOM      7  H   UNL d   1       8.821 -24.074 -35.448  0.00  0.00     0.168 HD
ENDBRANCH   1   6
TORSDOF 2
ENDMDL
MODEL 3
REMARK VINA RESULT:      -3.5      1.651      2.339
REMARK  2 active torsions:
REMARK  status: ('A' for Active; 'I' for Inactive)
REMARK    1  A    between atoms: C_2  and  O_1 
REMARK    2  A    between atoms: C_3  and  C_2 
ROOT
ATOM      1  C   UNL d   1       9.439 -23.682 -33.545  0.00  0.00     0.213 C 
ATOM      2  O   UNL d   1       9.136 -24.324 -32.561  0.00  0.00    -0.644 OA
ENDROOT
BRANCH   1   3
ATOM      3  C   UNL d   1       9.536 -22.160 -33.555  0.00  0.00     0.218 C 
ATOM      4  C   UNL d   1       9.948 -21.500 -32.278  0.00  0.00     0.103 C 
ATOM      5  O   UNL d   1       9.270 -21.579 -34.604  0.00  0.00    -0.286 OA
ENDBRANCH   1   3
BRANCH   1   6
ATOM      6  O   UNL d   1       9.734 -24.182 -34.760  0.00  0.00    -0.771 OA
ATOM      7  H   UNL d   1       9.764 -23.443 -35.414  0.00  0.00     0.168 HD
ENDBRANCH   1   6
TORSDOF 2
ENDMDL
MODEL 4
REMARK VINA RESULT:      -3.2      2.169      3.279
REMARK  2 active torsions:
REMARK  status: ('A' for Active; 'I' for Inactive)
REMARK    1  A    between atoms: C_2  and  O_1 
REMARK    2  A    between atoms: C_3  and  C_2 
ROOT
ATOM      1  C   UNL d   1       9.704 -22.580 -33.705  0.00  0.00     0.213 C 
ATOM      2  O   UNL d   1       9.546 -21.725 -34.550  0.00  0.00    -0.644 OA
ENDROOT
BRANCH   1   3
ATOM      3  C   UNL d   1       8.685 -22.878 -32.610  0.00  0.00     0.218 C 
ATOM      4  C   UNL d   1       7.869 -21.726 -32.116  0.00  0.00     0.103 C 
ATOM      5  O   UNL d   1       8.601 -24.035 -32.208  0.00  0.00    -0.286 OA
ENDBRANCH   1   3
BRANCH   1   6
ATOM      6  O   UNL d   1      10.773 -23.392 -33.586  0.00  0.00    -0.771 OA
ATOM      7  H   UNL d   1      11.061 -23.679 -34.486  0.00  0.00     0.168 HD
ENDBRANCH   1   6
TORSDOF 2
ENDMDL
MODEL 5
REMARK VINA RESULT:      -3.2     14.309     14.758
REMARK  2 active torsions:
REMARK  status: ('A' for Active; 'I' for Inactive)
REMARK    1  A    between atoms: C_2  and  O_1 
REMARK    2  A    between atoms: C_3  and  C_2 
ROOT
ATOM      1  C   UNL d   1      -2.161 -29.226 -25.664  0.00  0.00     0.213 C 
ATOM      2  O   UNL d   1      -1.513 -29.726 -26.558  0.00  0.00    -0.644 OA
ENDROOT
BRANCH   1   3
ATOM      3  C   UNL d   1      -2.064 -27.753 -25.279  0.00  0.00     0.218 C 
ATOM      4  C   UNL d   1      -1.355 -27.434 -24.001  0.00  0.00     0.103 C 
ATOM      5  O   UNL d   1      -2.573 -26.932 -26.037  0.00  0.00    -0.286 OA
ENDBRANCH   1   3
BRANCH   1   6
ATOM      6  O   UNL d   1      -3.052 -29.861 -24.879  0.00  0.00    -0.771 OA
ATOM      7  H   UNL d   1      -3.796 -29.245 -24.671  0.00  0.00     0.168 HD
ENDBRANCH   1   6
TORSDOF 2
ENDMDL
MODEL 6
REMARK VINA RESULT:      -3.1     14.683     15.711
REMARK  2 active torsions:
REMARK  status: ('A' for Active; 'I' for Inactive)
REMARK    1  A    between atoms: C_2  and  O_1 
REMARK    2  A    between atoms: C_3  and  C_2 
ROOT
ATOM      1  C   UNL d   1      -2.743 -30.014 -24.087  0.00  0.00     0.213 C 
ATOM      2  O   UNL d   1      -3.399 -31.032 -24.021  0.00  0.00    -0.644 OA
ENDROOT
BRANCH   1   3
ATOM      3  C   UNL d   1      -2.314 -29.375 -25.403  0.00  0.00     0.218 C 
ATOM      4  C   UNL d   1      -2.286 -27.880 -25.452  0.00  0.00     0.103 C 
ATOM      5  O   UNL d   1      -2.024 -30.124 -26.332  0.00  0.00    -0.286 OA
ENDBRANCH   1   3
BRANCH   1   6
ATOM      6  O   UNL d   1      -2.292 -29.291 -23.043  0.00  0.00    -0.771 OA
ATOM      7  H   UNL d   1      -2.420 -28.331 -23.237  0.00  0.00     0.168 HD
ENDBRANCH   1   6
TORSDOF 2
ENDMDL
MODEL 7
REMARK VINA RESULT:      -3.0     21.632     22.158
REMARK  2 active torsions:
REMARK  status: ('A' for Active; 'I' for Inactive)
REMARK    1  A    between atoms: C_2  and  O_1 
REMARK    2  A    between atoms: C_3  and  C_2 
ROOT
ATOM      1  C   UNL d   1     -11.596 -27.849 -26.788  0.00  0.00     0.213 C 
ATOM      2  O   UNL d   1     -11.941 -27.358 -25.734  0.00  0.00    -0.644 OA
ENDROOT
BRANCH   1   3
ATOM      3  C   UNL d   1     -10.730 -29.101 -26.887  0.00  0.00     0.218 C 
ATOM      4  C   UNL d   1     -10.125 -29.607 -25.616  0.00  0.00     0.103 C 
ATOM      5  O   UNL d   1     -10.585 -29.606 -27.997  0.00  0.00    -0.286 OA
ENDBRANCH   1   3
BRANCH   1   6
ATOM      6  O   UNL d   1     -11.908 -27.393 -28.016  0.00  0.00    -0.771 OA
ATOM      7  H   UNL d   1     -12.740 -26.865 -27.962  0.00  0.00     0.168 HD
ENDBRANCH   1   6
TORSDOF 2
ENDMDL
MODEL 8
REMARK VINA RESULT:      -2.9      3.820      4.801
REMARK  2 active torsions:
REMARK  status: ('A' for Active; 'I' for Inactive)
REMARK    1  A    between atoms: C_2  and  O_1 
REMARK    2  A    between atoms: C_3  and  C_2 
ROOT
ATOM      1  C   UNL d   1       8.744 -20.827 -34.332  0.00  0.00     0.213 C 
ATOM      2  O   UNL d   1       9.431 -21.825 -34.375  0.00  0.00    -0.644 OA
ENDROOT
BRANCH   1   3
ATOM      3  C   UNL d   1       8.263 -20.195 -33.030  0.00  0.00     0.218 C 
ATOM      4  C   UNL d   1       8.927 -20.654 -31.770  0.00  0.00     0.103 C 
ATOM      5  O   UNL d   1       7.368 -19.357 -33.099  0.00  0.00    -0.286 OA
ENDBRANCH   1   3
BRANCH   1   6
ATOM      6  O   UNL d   1       8.299 -20.123 -35.390  0.00  0.00    -0.771 OA
ATOM      7  H   UNL d   1       7.428 -19.717 -35.164  0.00  0.00     0.168 HD
ENDBRANCH   1   6
TORSDOF 2
ENDMDL
MODEL 9
REMARK VINA RESULT:      -2.9     14.709     15.573
REMARK  2 active torsions:
REMARK  status: ('A' for Active; 'I' for Inactive)
REMARK    1  A    between atoms: C_2  and  O_1 
REMARK    2  A    between atoms: C_3  and  C_2 
ROOT
ATOM      1  C   UNL d   1      10.768 -16.487 -20.573  0.00  0.00     0.213 C 
ATOM      2  O   UNL d   1      11.170 -17.482 -21.138  0.00  0.00    -0.644 OA
ENDROOT
BRANCH   1   3
ATOM      3  C   UNL d   1      11.220 -15.076 -20.935  0.00  0.00     0.218 C 
ATOM      4  C   UNL d   1      11.129 -14.687 -22.376  0.00  0.00     0.103 C 
ATOM      5  O   UNL d   1      11.628 -14.358 -20.027  0.00  0.00    -0.286 OA
ENDBRANCH   1   3
BRANCH   1   6
ATOM      6  O   UNL d   1       9.881 -16.453 -19.559  0.00  0.00    -0.771 OA
ATOM      7  H   UNL d   1      10.184 -17.064 -18.845  0.00  0.00     0.168 HD
ENDBRANCH   1   6
TORSDOF 2
ENDMDL
