MODEL 1
REMARK VINA RESULT:      -4.0      0.000      0.000
REMARK  2 active torsions:
REMARK  status: ('A' for Active; 'I' for Inactive)
REMARK    1  A    between atoms: C_2  and  O_1 
REMARK    2  A    between atoms: C_3  and  C_2 
ROOT
ATOM      1  C   UNL d   1     -11.800  -0.559   0.773  0.00  0.00     0.213 C 
ATOM      2  O   UNL d   1     -11.098  -1.484   1.122  0.00  0.00    -0.644 OA
ENDROOT
BRANCH   1   3
ATOM      3  C   UNL d   1     -11.463   0.352  -0.403  0.00  0.00     0.218 C 
ATOM      4  C   UNL d   1     -11.529  -0.255  -1.769  0.00  0.00     0.103 C 
ATOM      5  O   UNL d   1     -11.160   1.516  -0.154  0.00  0.00    -0.286 OA
ENDBRANCH   1   3
BRANCH   1   6
ATOM      6  O   UNL d   1     -12.962  -0.185   1.341  0.00  0.00    -0.771 OA
ATOM      7  H   UNL d   1     -13.248  -0.881   1.979  0.00  0.00     0.168 HD
ENDBRANCH   1   6
TORSDOF 2
ENDMDL
MODEL 2
REMARK VINA RESULT:      -3.9     11.529     12.348
REMARK  2 active torsions:
REMARK  status: ('A' for Active; 'I' for Inactive)
REMARK    1  A    between atoms: C_2  and  O_1 
REMARK    2  A    between atoms: C_3  and  C_2 
ROOT
ATOM      1  C   UNL d   1      -9.637  -4.493 -10.764  0.00  0.00     0.213 C 
ATOM      2  O   UNL d   1      -8.868  -3.937 -11.520  0.00  0.00    -0.644 OA
ENDROOT
BRANCH   1   3
ATOM      3  C   UNL d   1      -9.611  -5.994 -10.497  0.00  0.00     0.218 C 
ATOM      4  C   UNL d   1      -8.624  -6.803 -11.278  0.00  0.00     0.103 C 
ATOM      5  O   UNL d   1     -10.397  -6.439  -9.665  0.00  0.00    -0.286 OA
ENDBRANCH   1   3
BRANCH   1   6
ATOM      6  O   UNL d   1     -10.615  -3.904 -10.050  0.00  0.00    -0.771 OA
ATOM      7  H   UNL d   1     -11.378  -3.710 -10.647  0.00  0.00     0.168 HD
ENDBRANCH   1   6
TORSDOF 2
ENDMDL
MODEL 3
REMARK VINA RESULT:      -3.9      1.223      2.307
REMARK  2 active torsions:
REMARK  status: ('A' for Active; 'I' for Inactive)
REMARK    1  A    between atoms: C_2  and  O_1 
REMARK    2  A    between atoms: C_3  and  C_2 
ROOT
ATOM      1  C   UNL d   1     -11.737   1.295  -0.279  0.00  0.00     0.213 C 
ATOM      2  O   UNL d   1     -11.000   1.988   0.389  0.00  0.00    -0.644 OA
ENDROOT
BRANCH   1   3
ATOM      3  C   UNL d   1     -11.443  -0.165  -0.611  0.00  0.00     0.218 C 
ATOM      4  C   UNL d   1     -11.510  -0.556  -2.054  0.00  0.00     0.103 C 
ATOM      5  O   UNL d   1     -11.174  -0.918   0.320  0.00  0.00    -0.286 OA
ENDBRANCH   1   3
BRANCH   1   6
ATOM      6  O   UNL d   1     -12.907   1.677  -0.827  0.00  0.00    -0.771 OA
ATOM      7  H   UNL d   1     -12.956   1.335  -1.752  0.00  0.00     0.168 HD
ENDBRANCH   1   6
TORSDOF 2
ENDMDL
MODEL 4
REMARK VINA RESULT:      -3.9     10.989     11.605
REMARK  2 active torsions:
REMARK  status: ('A' for Active; 'I' for Inactive)
REMARK    1  A    between atoms: C_2  and  O_1 
REMARK    2  A    between atoms: C_3  and  C_2 
ROOT
ATOM      1  C   UNL d   1      -9.798  -6.661   9.074  0.00  0.00     0.213 C 
ATOM      2  O   UNL d   1      -8.942  -7.489   8.848  0.00  0.00    -0.644 OA
ENDROOT
BRANCH   1   3
ATOM      3  C   UNL d   1      -9.681  -5.612  10.175  0.00  0.00     0.218 C 
ATOM      4  C   UNL d   1      -8.595  -5.812  11.186  0.00  0.00     0.103 C 
ATOM      5  O   UNL d   1     -10.480  -4.680  10.162  0.00  0.00    -0.286 OA
ENDBRANCH   1   3
BRANCH   1   6
ATOM      6  O   UNL d   1     -10.965  -6.524   8.416  0.00  0.00    -0.771 OA
ATOM      7  H   UNL d   1     -11.710  -6.656   9.049  0.00  0.00     0.168 HD
ENDBRANCH   1   6
TORSDOF 2
ENDMDL
MODEL 5
REMARK VINA RESULT:      -3.9      1.759      2.433
REMARK  2 active torsions:
REMARK  status: ('A' for Active; 'I' for Inactive)
REMARK    1  A    between atoms: C_2  and  O_1 
REMARK    2  A    between atoms: C_3  and  C_2 
ROOT
ATOM      1  C   UNL d   1     -11.737  -0.319  -1.382  0.00  0.00     0.213 C 
ATOM      2  O   UNL d   1     -10.938  -0.195  -2.287  0.00  0.00    -0.644 OA
ENDROOT
BRANCH   1   3
ATOM      3  C   UNL d   1     -11.582   0.363  -0.027  0.00  0.00     0.218 C 
ATOM      4  C   UNL d   1     -12.090  -0.383   1.167  0.00  0.00     0.103 C 
ATOM      5  O   UNL d   1     -11.057   1.472  -0.004  0.00  0.00    -0.286 OA
ENDBRANCH   1   3
BRANCH   1   6
ATOM      6  O   UNL d   1     -12.863  -1.057  -1.414  0.00  0.00    -0.771 OA
ATOM      7  H   UNL d   1     -12.688  -1.893  -1.908  0.00  0.00     0.168 HD
ENDBRANCH   1   6
TORSDOF 2
ENDMDL
MODEL 6
REMARK VINA RESULT:      -3.8     12.193     12.795
REMARK  2 active torsions:
REMARK  status: ('A' for Active; 'I' for Inactive)
REMARK    1  A    between atoms: C_2  and  O_1 
REMARK    2  A    between atoms: C_3  and  C_2 
ROOT
ATOM      1  C   UNL d   1      -9.987  -6.690 -10.709  0.00  0.00     0.213 C 
ATOM      2  O   UNL d   1     -10.252  -7.573 -11.497  0.00  0.00    -0.644 OA
ENDROOT
BRANCH   1   3
ATOM      3  C   UNL d   1      -8.921  -5.629 -10.965  0.00  0.00     0.218 C 
ATOM      4  C   UNL d   1      -8.224  -5.677 -12.288  0.00  0.00     0.103 C 
ATOM      5  O   UNL d   1      -8.705  -4.812 -10.074  0.00  0.00    -0.286 OA
ENDBRANCH   1   3
BRANCH   1   6
ATOM      6  O   UNL d   1     -10.567  -6.495  -9.509  0.00  0.00    -0.771 OA
ATOM      7  H   UNL d   1     -10.067  -5.800  -9.018  0.00  0.00     0.168 HD
ENDBRANCH   1   6
TORSDOF 2
ENDMDL
MODEL 7
REMARK VINA RESULT:      -3.8     11.484     12.434
REMARK  2 active torsions:
REMARK  status: ('A' for Active; 'I' for Inactive)
REMARK    1  A    between atoms: C_2  and  O_1 
REMARK    2  A    between atoms: C_3  and  C_2 
ROOT
ATOM      1  C   UNL d   1      -9.783  11.492   0.367  0.00  0.00     0.213 C 
ATOM      2  O   UNL d   1      -9.983  11.483  -0.829  0.00  0.00    -0.644 OA
ENDROOT
BRANCH   1   3
ATOM      3  C   UNL d   1      -8.657  12.284   1.023  0.00  0.00     0.218 C 
ATOM      4  C   UNL d   1      -8.115  13.450   0.257  0.00  0.00     0.103 C 
ATOM      5  O   UNL d   1      -8.269  11.916   2.128  0.00  0.00    -0.286 OA
ENDBRANCH   1   3
BRANCH   1   6
ATOM      6  O   UNL d   1     -10.496  10.829   1.297  0.00  0.00    -0.771 OA
ATOM      7  H   UNL d   1      -9.880  10.302   1.861  0.00  0.00     0.168 HD
ENDBRANCH   1   6
TORSDOF 2
ENDMDL
MODEL 8
REMARK VINA RESULT:      -3.7     14.322     15.208
REMARK  2 active torsions:
REMARK  status: ('A' for Active; 'I' for Inactive)
REMARK    1  A    between atoms: C_2  and  O_1 
REMARK    2  A    between atoms: C_3  and  C_2 
ROOT
ATOM      1  C   UNL d   1     -14.656  14.826  -2.105  0.00  0.00     0.213 C 
ATOM      2  O   UNL d   1     -15.058  15.865  -2.583  0.00  0.00    -0.644 OA
ENDROOT
BRANCH   1   3
ATOM      3  C   UNL d   1     -13.180  14.529  -1.862  0.00  0.00     0.218 C 
ATOM      4  C   UNL d   1     -12.839  13.762  -0.624  0.00  0.00     0.103 C 
ATOM      5  O   UNL d   1     -12.373  14.938  -2.692  0.00  0.00    -0.286 OA
ENDBRANCH   1   3
BRANCH   1   6
ATOM      6  O   UNL d   1     -15.416  13.784  -1.715  0.00  0.00    -0.771 OA
ATOM      7  H   UNL d   1     -15.655  13.245  -2.507  0.00  0.00     0.168 HD
ENDBRANCH   1   6
TORSDOF 2
ENDMDL
MODEL 9
REMARK VINA RESULT:      -3.6      5.633      6.397
REMARK  2 active torsions:
REMARK  status: ('A' for Active; 'I' for Inactive)
REMARK    1  A    between atoms: C_2  and  O_1 
REMARK    2  A    between atoms: C_3  and  C_2 
ROOT
ATOM      1  C   UNL d   1     -16.393   2.241  -1.442  0.00  0.00     0.213 C 
ATOM      2  O   UNL d   1     -16.807   2.315  -2.580  0.00  0.00    -0.644 OA
ENDROOT
BRANCH   1   3
ATOM      3  C   UNL d   1     -17.294   1.997  -0.236  0.00  0.00     0.218 C 
ATOM      4  C   UNL d   1     -17.301   3.050   0.826  0.00  0.00     0.103 C 
ATOM      5  O   UNL d   1     -17.948   0.958  -0.214  0.00  0.00    -0.286 OA
ENDBRANCH   1   3
BRANCH   1   6
ATOM      6  O   UNL d   1     -15.108   2.357  -1.056  0.00  0.00    -0.771 OA
ATOM      7  H   UNL d   1     -14.792   3.271  -1.256  0.00  0.00     0.168 HD
ENDBRANCH   1   6
TORSDOF 2
ENDMDL
