MODEL 1
REMARK VINA RESULT:      -5.3      0.000      0.000
REMARK  10 active torsions:
REMARK  status: ('A' for Active; 'I' for Inactive)
REMARK    1  A    between atoms: N_1  and  C_2 
REMARK    2  A    between atoms: C_2  and  C_3 
REMARK       I    between atoms: C_3  and  N_4 
REMARK    3  A    between atoms: N_4  and  C_6 
REMARK    4  A    between atoms: C_8  and  O_10 
REMARK    5  A    between atoms: C_9  and  C_12 
REMARK    6  A    between atoms: C_11  and  O_13 
REMARK    7  A    between atoms: C_12  and  O_14 
REMARK    8  A    between atoms: O_14  and  P_15 
REMARK    9  A    between atoms: P_15  and  O_17 
REMARK   10  A    between atoms: P_15  and  O_18 
ROOT
ATOM      1  C   UNL d   1     -16.537  21.361  24.006  0.00  0.00     0.255 C 
ATOM      2  O   UNL d   1     -16.194  22.727  24.266  0.00  0.00    -0.354 OA
ATOM      3  C   UNL d   1     -16.800  21.257  22.500  0.00  0.00     0.198 C 
ATOM      4  C   UNL d   1     -15.761  23.340  23.031  0.00  0.00     0.180 C 
ATOM      5  C   UNL d   1     -15.768  22.242  21.968  0.00  0.00     0.182 C 
ENDROOT
BRANCH   1   6
ATOM      6  N   UNL d   1     -17.670  21.042  24.815  0.00  0.00    -0.331 N 
ATOM      7  C   UNL d   1     -17.550  20.328  25.984  0.00  0.00     0.247 C 
ATOM      8  O   UNL d   1     -16.473  20.030  26.487  0.00  0.00    -0.272 OA
ATOM      9  H   UNL d   1     -18.607  21.191  24.456  0.00  0.00     0.165 HD
BRANCH   7  10
ATOM     10  C   UNL d   1     -18.889  19.988  26.642  0.00  0.00     0.368 C 
BRANCH  10  11
ATOM     11  N   UNL d   1     -19.688  19.083  25.792  0.00  0.00     0.087 N 
ATOM     12  H   UNL d   1     -20.204  18.451  26.406  0.00  0.00     0.313 HD
ATOM     13  H   UNL d   1     -19.041  18.483  25.273  0.00  0.00     0.313 HD
ENDBRANCH  10  11
ENDBRANCH   7  10
ENDBRANCH   1   6
BRANCH   3  14
ATOM     14  O   UNL d   1     -16.613  19.961  21.941  0.00  0.00    -0.389 OA
ATOM     15  H   UNL d   1     -16.794  19.320  22.657  0.00  0.00     0.210 HD
ENDBRANCH   3  14
BRANCH   4  16
ATOM     16  C   UNL d   1     -16.655  24.535  22.701  0.00  0.00     0.215 C 
BRANCH  16  17
ATOM     17  O   UNL d   1     -17.169  24.485  21.370  0.00  0.00    -0.294 OA
BRANCH  17  18
ATOM     18  P   UNL d   1     -17.930  25.974  20.926  0.00  0.00     0.390 P 
ATOM     19  O   UNL d   1     -18.611  27.307  20.529  0.00  0.00    -0.632 OA
BRANCH  18  20
ATOM     20  O   UNL d   1     -17.082  25.817  19.532  0.00  0.00    -0.307 OA
ATOM     21  H   UNL d   1     -16.128  25.941  19.676  0.00  0.00     0.222 HD
ENDBRANCH  18  20
BRANCH  18  22
ATOM     22  O   UNL d   1     -19.159  25.027  20.406  0.00  0.00    -0.307 OA
ATOM     23  H   UNL d   1     -19.937  25.610  20.330  0.00  0.00     0.222 HD
ENDBRANCH  18  22
ENDBRANCH  17  18
ENDBRANCH  16  17
ENDBRANCH   4  16
BRANCH   5  24
ATOM     24  O   UNL d   1     -14.486  21.585  21.898  0.00  0.00    -0.390 OA
ATOM     25  H   UNL d   1     -13.808  22.231  21.618  0.00  0.00     0.210 HD
ENDBRANCH   5  24
TORSDOF 10
ENDMDL
MODEL 2
REMARK VINA RESULT:      -4.9     27.042     29.044
REMARK  10 active torsions:
REMARK  status: ('A' for Active; 'I' for Inactive)
REMARK    1  A    between atoms: N_1  and  C_2 
REMARK    2  A    between atoms: C_2  and  C_3 
REMARK       I    between atoms: C_3  and  N_4 
REMARK    3  A    between atoms: N_4  and  C_6 
REMARK    4  A    between atoms: C_8  and  O_10 
REMARK    5  A    between atoms: C_9  and  C_12 
REMARK    6  A    between atoms: C_11  and  O_13 
REMARK    7  A    between atoms: C_12  and  O_14 
REMARK    8  A    between atoms: O_14  and  P_15 
REMARK    9  A    between atoms: P_15  and  O_17 
REMARK   10  A    between atoms: P_15  and  O_18 
ROOT
ATOM      1  C   UNL d   1     -31.080  -0.848  34.954  0.00  0.00     0.255 C 
ATOM      2  O   UNL d   1     -30.344  -0.897  33.726  0.00  0.00    -0.354 OA
ATOM      3  C   UNL d   1     -32.516  -1.268  34.619  0.00  0.00     0.198 C 
ATOM      4  C   UNL d   1     -31.051  -1.747  32.795  0.00  0.00     0.180 C 
ATOM      5  C   UNL d   1     -32.256  -2.314  33.544  0.00  0.00     0.182 C 
ENDROOT
BRANCH   1   6
ATOM      6  N   UNL d   1     -30.970   0.480  35.468  0.00  0.00    -0.331 N 
ATOM      7  C   UNL d   1     -31.206   0.767  36.792  0.00  0.00     0.247 C 
ATOM      8  O   UNL d   1     -31.393  -0.089  37.648  0.00  0.00    -0.272 OA
ATOM      9  H   UNL d   1     -30.880   1.264  34.831  0.00  0.00     0.165 HD
BRANCH   7  10
ATOM     10  C   UNL d   1     -31.152   2.262  37.119  0.00  0.00     0.368 C 
BRANCH  10  11
ATOM     11  N   UNL d   1     -29.794   2.668  37.535  0.00  0.00     0.087 N 
ATOM     12  H   UNL d   1     -29.154   1.907  37.299  0.00  0.00     0.313 HD
ATOM     13  H   UNL d   1     -29.779   2.723  38.557  0.00  0.00     0.313 HD
ENDBRANCH  10  11
ENDBRANCH   7  10
ENDBRANCH   1   6
BRANCH   3  14
ATOM     14  O   UNL d   1     -33.255  -1.815  35.705  0.00  0.00    -0.389 OA
ATOM     15  H   UNL d   1     -32.867  -2.693  35.892  0.00  0.00     0.210 HD
ENDBRANCH   3  14
BRANCH   4  16
ATOM     16  C   UNL d   1     -31.411  -0.955  31.538  0.00  0.00     0.215 C 
BRANCH  16  17
ATOM     17  O   UNL d   1     -30.393  -0.026  31.163  0.00  0.00    -0.294 OA
BRANCH  17  18
ATOM     18  P   UNL d   1     -31.041   1.556  30.898  0.00  0.00     0.390 P 
ATOM     19  O   UNL d   1     -31.621   2.971  30.660  0.00  0.00    -0.632 OA
BRANCH  18  20
ATOM     20  O   UNL d   1     -32.383   0.757  30.401  0.00  0.00    -0.307 OA
ATOM     21  H   UNL d   1     -32.706   0.141  31.081  0.00  0.00     0.222 HD
ENDBRANCH  18  20
BRANCH  18  22
ATOM     22  O   UNL d   1     -31.462   1.493  32.477  0.00  0.00    -0.307 OA
ATOM     23  H   UNL d   1     -31.963   0.664  32.592  0.00  0.00     0.222 HD
ENDBRANCH  18  22
ENDBRANCH  17  18
ENDBRANCH  16  17
ENDBRANCH   4  16
BRANCH   5  24
ATOM     24  O   UNL d   1     -31.926  -3.566  34.178  0.00  0.00    -0.390 OA
ATOM     25  H   UNL d   1     -31.970  -4.284  33.517  0.00  0.00     0.210 HD
ENDBRANCH   5  24
TORSDOF 10
ENDMDL
MODEL 3
REMARK VINA RESULT:      -4.6     27.617     29.290
REMARK  10 active torsions:
REMARK  status: ('A' for Active; 'I' for Inactive)
REMARK    1  A    between atoms: N_1  and  C_2 
REMARK    2  A    between atoms: C_2  and  C_3 
REMARK       I    between atoms: C_3  and  N_4 
REMARK    3  A    between atoms: N_4  and  C_6 
REMARK    4  A    between atoms: C_8  and  O_10 
REMARK    5  A    between atoms: C_9  and  C_12 
REMARK    6  A    between atoms: C_11  and  O_13 
REMARK    7  A    between atoms: C_12  and  O_14 
REMARK    8  A    between atoms: O_14  and  P_15 
REMARK    9  A    between atoms: P_15  and  O_17 
REMARK   10  A    between atoms: P_15  and  O_18 
ROOT
ATOM      1  C   UNL d   1     -30.698  -1.714  32.363  0.00  0.00     0.255 C 
ATOM      2  O   UNL d   1     -29.927  -1.189  33.451  0.00  0.00    -0.354 OA
ATOM      3  C   UNL d   1     -31.822  -0.706  32.099  0.00  0.00     0.198 C 
ATOM      4  C   UNL d   1     -30.175   0.231  33.551  0.00  0.00     0.180 C 
ATOM      5  C   UNL d   1     -31.098   0.602  32.392  0.00  0.00     0.182 C 
ENDROOT
BRANCH   1   6
ATOM      6  N   UNL d   1     -31.160  -3.008  32.750  0.00  0.00    -0.331 N 
ATOM      7  C   UNL d   1     -32.058  -3.182  33.777  0.00  0.00     0.247 C 
ATOM      8  O   UNL d   1     -32.628  -2.256  34.342  0.00  0.00    -0.272 OA
ATOM      9  H   UNL d   1     -30.705  -3.838  32.385  0.00  0.00     0.165 HD
BRANCH   7  10
ATOM     10  C   UNL d   1     -32.337  -4.649  34.114  0.00  0.00     0.368 C 
BRANCH  10  11
ATOM     11  N   UNL d   1     -32.324  -5.487  32.898  0.00  0.00     0.087 N 
ATOM     12  H   UNL d   1     -32.767  -6.378  33.129  0.00  0.00     0.313 HD
ATOM     13  H   UNL d   1     -31.350  -5.719  32.684  0.00  0.00     0.313 HD
ENDBRANCH  10  11
ENDBRANCH   7  10
ENDBRANCH   1   6
BRANCH   3  14
ATOM     14  O   UNL d   1     -32.348  -0.720  30.776  0.00  0.00    -0.389 OA
ATOM     15  H   UNL d   1     -32.762   0.154  30.631  0.00  0.00     0.210 HD
ENDBRANCH   3  14
BRANCH   4  16
ATOM     16  C   UNL d   1     -30.740   0.564  34.932  0.00  0.00     0.215 C 
BRANCH  16  17
ATOM     17  O   UNL d   1     -30.546   1.933  35.290  0.00  0.00    -0.294 OA
BRANCH  17  18
ATOM     18  P   UNL d   1     -30.050   2.095  36.940  0.00  0.00     0.390 P 
ATOM     19  O   UNL d   1     -29.606   2.240  38.416  0.00  0.00    -0.632 OA
BRANCH  18  20
ATOM     20  O   UNL d   1     -29.069   3.278  36.370  0.00  0.00    -0.307 OA
ATOM     21  H   UNL d   1     -29.283   3.510  35.450  0.00  0.00     0.222 HD
ENDBRANCH  18  20
BRANCH  18  22
ATOM     22  O   UNL d   1     -31.340   3.091  37.081  0.00  0.00    -0.307 OA
ATOM     23  H   UNL d   1     -31.480   3.219  38.038  0.00  0.00     0.222 HD
ENDBRANCH  18  22
ENDBRANCH  17  18
ENDBRANCH  16  17
ENDBRANCH   4  16
BRANCH   5  24
ATOM     24  O   UNL d   1     -30.337   0.986  31.230  0.00  0.00    -0.390 OA
ATOM     25  H   UNL d   1     -30.167   1.948  31.259  0.00  0.00     0.210 HD
ENDBRANCH   5  24
TORSDOF 10
ENDMDL
MODEL 4
REMARK VINA RESULT:      -4.6     26.961     28.886
REMARK  10 active torsions:
REMARK  status: ('A' for Active; 'I' for Inactive)
REMARK    1  A    between atoms: N_1  and  C_2 
REMARK    2  A    between atoms: C_2  and  C_3 
REMARK       I    between atoms: C_3  and  N_4 
REMARK    3  A    between atoms: N_4  and  C_6 
REMARK    4  A    between atoms: C_8  and  O_10 
REMARK    5  A    between atoms: C_9  and  C_12 
REMARK    6  A    between atoms: C_11  and  O_13 
REMARK    7  A    between atoms: C_12  and  O_14 
REMARK    8  A    between atoms: O_14  and  P_15 
REMARK    9  A    between atoms: P_15  and  O_17 
REMARK   10  A    between atoms: P_15  and  O_18 
ROOT
ATOM      1  C   UNL d   1     -30.892  -0.352  33.081  0.00  0.00     0.255 C 
ATOM      2  O   UNL d   1     -31.653   0.579  33.859  0.00  0.00    -0.354 OA
ATOM      3  C   UNL d   1     -31.022  -1.711  33.778  0.00  0.00     0.198 C 
ATOM      4  C   UNL d   1     -32.602  -0.155  34.663  0.00  0.00     0.180 C 
ATOM      5  C   UNL d   1     -32.456  -1.629  34.284  0.00  0.00     0.182 C 
ENDROOT
BRANCH   1   6
ATOM      6  N   UNL d   1     -29.553   0.138  33.014  0.00  0.00    -0.331 N 
ATOM      7  C   UNL d   1     -28.732  -0.134  31.945  0.00  0.00     0.247 C 
ATOM      8  O   UNL d   1     -29.114  -0.691  30.922  0.00  0.00    -0.272 OA
ATOM      9  H   UNL d   1     -29.125   0.556  33.834  0.00  0.00     0.165 HD
BRANCH   7  10
ATOM     10  C   UNL d   1     -27.301   0.381  32.116  0.00  0.00     0.368 C 
BRANCH  10  11
ATOM     11  N   UNL d   1     -26.952   0.524  33.544  0.00  0.00     0.087 N 
ATOM     12  H   UNL d   1     -27.157   1.486  33.820  0.00  0.00     0.313 HD
ATOM     13  H   UNL d   1     -25.937   0.429  33.633  0.00  0.00     0.313 HD
ENDBRANCH  10  11
ENDBRANCH   7  10
ENDBRANCH   1   6
BRANCH   3  14
ATOM     14  O   UNL d   1     -30.836  -2.844  32.936  0.00  0.00    -0.389 OA
ATOM     15  H   UNL d   1     -30.989  -2.538  32.020  0.00  0.00     0.210 HD
ENDBRANCH   3  14
BRANCH   4  16
ATOM     16  C   UNL d   1     -32.363   0.136  36.145  0.00  0.00     0.215 C 
BRANCH  16  17
ATOM     17  O   UNL d   1     -32.256   1.533  36.420  0.00  0.00    -0.294 OA
BRANCH  17  18
ATOM     18  P   UNL d   1     -30.760   1.916  37.199  0.00  0.00     0.390 P 
ATOM     19  O   UNL d   1     -29.420   2.258  37.896  0.00  0.00    -0.632 OA
BRANCH  18  20
ATOM     20  O   UNL d   1     -30.183   2.080  35.674  0.00  0.00    -0.307 OA
ATOM     21  H   UNL d   1     -30.217   1.241  35.184  0.00  0.00     0.222 HD
ENDBRANCH  18  20
BRANCH  18  22
ATOM     22  O   UNL d   1     -31.343   3.444  37.253  0.00  0.00    -0.307 OA
ATOM     23  H   UNL d   1     -30.619   3.998  37.600  0.00  0.00     0.222 HD
ENDBRANCH  18  22
ENDBRANCH  17  18
ENDBRANCH  16  17
ENDBRANCH   4  16
BRANCH   5  24
ATOM     24  O   UNL d   1     -33.352  -1.975  33.209  0.00  0.00    -0.390 OA
ATOM     25  H   UNL d   1     -33.285  -2.933  33.030  0.00  0.00     0.210 HD
ENDBRANCH   5  24
TORSDOF 10
ENDMDL
MODEL 5
REMARK VINA RESULT:      -4.5     25.367     27.785
REMARK  10 active torsions:
REMARK  status: ('A' for Active; 'I' for Inactive)
REMARK    1  A    between atoms: N_1  and  C_2 
REMARK    2  A    between atoms: C_2  and  C_3 
REMARK       I    between atoms: C_3  and  N_4 
REMARK    3  A    between atoms: N_4  and  C_6 
REMARK    4  A    between atoms: C_8  and  O_10 
REMARK    5  A    between atoms: C_9  and  C_12 
REMARK    6  A    between atoms: C_11  and  O_13 
REMARK    7  A    between atoms: C_12  and  O_14 
REMARK    8  A    between atoms: O_14  and  P_15 
REMARK    9  A    between atoms: P_15  and  O_17 
REMARK   10  A    between atoms: P_15  and  O_18 
ROOT
ATOM      1  C   UNL d   1     -31.094   0.860  35.383  0.00  0.00     0.255 C 
ATOM      2  O   UNL d   1     -30.643   2.180  35.708  0.00  0.00    -0.354 OA
ATOM      3  C   UNL d   1     -30.259  -0.107  36.230  0.00  0.00     0.198 C 
ATOM      4  C   UNL d   1     -29.974   2.140  36.988  0.00  0.00     0.180 C 
ATOM      5  C   UNL d   1     -30.101   0.708  37.507  0.00  0.00     0.182 C 
ENDROOT
BRANCH   1   6
ATOM      6  N   UNL d   1     -30.930   0.686  33.975  0.00  0.00    -0.331 N 
ATOM      7  C   UNL d   1     -31.578  -0.313  33.287  0.00  0.00     0.247 C 
ATOM      8  O   UNL d   1     -32.435  -1.033  33.786  0.00  0.00    -0.272 OA
ATOM      9  H   UNL d   1     -30.200   1.190  33.483  0.00  0.00     0.165 HD
BRANCH   7  10
ATOM     10  C   UNL d   1     -31.181  -0.407  31.811  0.00  0.00     0.368 C 
BRANCH  10  11
ATOM     11  N   UNL d   1     -32.312  -0.872  30.983  0.00  0.00     0.087 N 
ATOM     12  H   UNL d   1     -33.114  -0.273  31.184  0.00  0.00     0.313 HD
ATOM     13  H   UNL d   1     -32.582  -1.803  31.311  0.00  0.00     0.313 HD
ENDBRANCH  10  11
ENDBRANCH   7  10
ENDBRANCH   1   6
BRANCH   3  14
ATOM     14  O   UNL d   1     -30.871  -1.365  36.492  0.00  0.00    -0.389 OA
ATOM     15  H   UNL d   1     -31.301  -1.645  35.660  0.00  0.00     0.210 HD
ENDBRANCH   3  14
BRANCH   4  16
ATOM     16  C   UNL d   1     -28.532   2.625  36.836  0.00  0.00     0.215 C 
BRANCH  16  17
ATOM     17  O   UNL d   1     -28.451   3.948  36.304  0.00  0.00    -0.294 OA
BRANCH  17  18
ATOM     18  P   UNL d   1     -26.875   4.286  35.676  0.00  0.00     0.390 P 
ATOM     19  O   UNL d   1     -25.464   4.588  35.115  0.00  0.00    -0.632 OA
BRANCH  18  20
ATOM     20  O   UNL d   1     -27.212   3.093  34.603  0.00  0.00    -0.307 OA
ATOM     21  H   UNL d   1     -27.299   2.230  35.042  0.00  0.00     0.222 HD
ENDBRANCH  18  20
BRANCH  18  22
ATOM     22  O   UNL d   1     -27.629   5.436  34.791  0.00  0.00    -0.307 OA
ATOM     23  H   UNL d   1     -28.303   4.972  34.261  0.00  0.00     0.222 HD
ENDBRANCH  18  22
ENDBRANCH  17  18
ENDBRANCH  16  17
ENDBRANCH   4  16
BRANCH   5  24
ATOM     24  O   UNL d   1     -31.288   0.555  38.310  0.00  0.00    -0.390 OA
ATOM     25  H   UNL d   1     -32.023   1.049  37.896  0.00  0.00     0.210 HD
ENDBRANCH   5  24
TORSDOF 10
ENDMDL
MODEL 6
REMARK VINA RESULT:      -4.5     26.426     28.005
REMARK  10 active torsions:
REMARK  status: ('A' for Active; 'I' for Inactive)
REMARK    1  A    between atoms: N_1  and  C_2 
REMARK    2  A    between atoms: C_2  and  C_3 
REMARK       I    between atoms: C_3  and  N_4 
REMARK    3  A    between atoms: N_4  and  C_6 
REMARK    4  A    between atoms: C_8  and  O_10 
REMARK    5  A    between atoms: C_9  and  C_12 
REMARK    6  A    between atoms: C_11  and  O_13 
REMARK    7  A    between atoms: C_12  and  O_14 
REMARK    8  A    between atoms: O_14  and  P_15 
REMARK    9  A    between atoms: P_15  and  O_17 
REMARK   10  A    between atoms: P_15  and  O_18 
ROOT
ATOM      1  C   UNL d   1     -31.105   0.032  33.509  0.00  0.00     0.255 C 
ATOM      2  O   UNL d   1     -30.427  -1.224  33.396  0.00  0.00    -0.354 OA
ATOM      3  C   UNL d   1     -30.923   0.749  32.167  0.00  0.00     0.198 C 
ATOM      4  C   UNL d   1     -30.269  -1.541  31.995  0.00  0.00     0.180 C 
ATOM      5  C   UNL d   1     -30.973  -0.434  31.210  0.00  0.00     0.182 C 
ENDROOT
BRANCH   1   6
ATOM      6  N   UNL d   1     -30.536   0.728  34.619  0.00  0.00    -0.331 N 
ATOM      7  C   UNL d   1     -31.288   1.087  35.713  0.00  0.00     0.247 C 
ATOM      8  O   UNL d   1     -32.448   0.730  35.886  0.00  0.00    -0.272 OA
ATOM      9  H   UNL d   1     -29.604   1.121  34.547  0.00  0.00     0.165 HD
BRANCH   7  10
ATOM     10  C   UNL d   1     -30.524   1.927  36.741  0.00  0.00     0.368 C 
BRANCH  10  11
ATOM     11  N   UNL d   1     -29.153   2.219  36.277  0.00  0.00     0.087 N 
ATOM     12  H   UNL d   1     -29.203   3.006  35.628  0.00  0.00     0.313 HD
ATOM     13  H   UNL d   1     -28.834   1.426  35.714  0.00  0.00     0.313 HD
ENDBRANCH  10  11
ENDBRANCH   7  10
ENDBRANCH   1   6
BRANCH   3  14
ATOM     14  O   UNL d   1     -31.926   1.710  31.853  0.00  0.00    -0.389 OA
ATOM     15  H   UNL d   1     -32.194   1.541  30.928  0.00  0.00     0.210 HD
ENDBRANCH   3  14
BRANCH   4  16
ATOM     16  C   UNL d   1     -28.785  -1.697  31.661  0.00  0.00     0.215 C 
BRANCH  16  17
ATOM     17  O   UNL d   1     -27.935  -1.301  32.739  0.00  0.00    -0.294 OA
BRANCH  17  18
ATOM     18  P   UNL d   1     -26.687  -0.229  32.204  0.00  0.00     0.390 P 
ATOM     19  O   UNL d   1     -25.570   0.730  31.724  0.00  0.00    -0.632 OA
BRANCH  18  20
ATOM     20  O   UNL d   1     -27.551   0.924  32.985  0.00  0.00    -0.307 OA
ATOM     21  H   UNL d   1     -27.701   1.703  32.423  0.00  0.00     0.222 HD
ENDBRANCH  18  20
BRANCH  18  22
ATOM     22  O   UNL d   1     -25.898  -0.701  33.557  0.00  0.00    -0.307 OA
ATOM     23  H   UNL d   1     -26.150  -1.631  33.707  0.00  0.00     0.222 HD
ENDBRANCH  18  22
ENDBRANCH  17  18
ENDBRANCH  16  17
ENDBRANCH   4  16
BRANCH   5  24
ATOM     24  O   UNL d   1     -32.351  -0.777  30.961  0.00  0.00    -0.390 OA
ATOM     25  H   UNL d   1     -32.712  -0.182  30.274  0.00  0.00     0.210 HD
ENDBRANCH   5  24
TORSDOF 10
ENDMDL
MODEL 7
REMARK VINA RESULT:      -4.2      4.492      5.951
REMARK  10 active torsions:
REMARK  status: ('A' for Active; 'I' for Inactive)
REMARK    1  A    between atoms: N_1  and  C_2 
REMARK    2  A    between atoms: C_2  and  C_3 
REMARK       I    between atoms: C_3  and  N_4 
REMARK    3  A    between atoms: N_4  and  C_6 
REMARK    4  A    between atoms: C_8  and  O_10 
REMARK    5  A    between atoms: C_9  and  C_12 
REMARK    6  A    between atoms: C_11  and  O_13 
REMARK    7  A    between atoms: C_12  and  O_14 
REMARK    8  A    between atoms: O_14  and  P_15 
REMARK    9  A    between atoms: P_15  and  O_17 
REMARK   10  A    between atoms: P_15  and  O_18 
ROOT
ATOM      1  C   UNL d   1     -13.811  18.533  22.038  0.00  0.00     0.255 C 
ATOM      2  O   UNL d   1     -13.205  19.348  23.048  0.00  0.00    -0.354 OA
ATOM      3  C   UNL d   1     -15.268  18.995  21.921  0.00  0.00     0.198 C 
ATOM      4  C   UNL d   1     -13.992  20.549  23.208  0.00  0.00     0.180 C 
ATOM      5  C   UNL d   1     -15.106  20.489  22.165  0.00  0.00     0.182 C 
ENDROOT
BRANCH   1   6
ATOM      6  N   UNL d   1     -13.666  17.171  22.441  0.00  0.00    -0.331 N 
ATOM      7  C   UNL d   1     -13.866  16.129  21.566  0.00  0.00     0.247 C 
ATOM      8  O   UNL d   1     -14.048  16.280  20.363  0.00  0.00    -0.272 OA
ATOM      9  H   UNL d   1     -13.578  16.941  23.425  0.00  0.00     0.165 HD
BRANCH   7  10
ATOM     10  C   UNL d   1     -13.779  14.747  22.218  0.00  0.00     0.368 C 
BRANCH  10  11
ATOM     11  N   UNL d   1     -14.142  14.808  23.648  0.00  0.00     0.087 N 
ATOM     12  H   UNL d   1     -14.301  13.852  23.971  0.00  0.00     0.313 HD
ATOM     13  H   UNL d   1     -15.052  15.271  23.724  0.00  0.00     0.313 HD
ENDBRANCH  10  11
ENDBRANCH   7  10
ENDBRANCH   1   6
BRANCH   3  14
ATOM     14  O   UNL d   1     -15.885  18.741  20.663  0.00  0.00    -0.389 OA
ATOM     15  H   UNL d   1     -16.703  19.275  20.640  0.00  0.00     0.210 HD
ENDBRANCH   3  14
BRANCH   4  16
ATOM     16  C   UNL d   1     -14.489  20.655  24.650  0.00  0.00     0.215 C 
BRANCH  16  17
ATOM     17  O   UNL d   1     -15.727  21.362  24.753  0.00  0.00    -0.294 OA
BRANCH  17  18
ATOM     18  P   UNL d   1     -16.862  20.516  25.748  0.00  0.00     0.390 P 
ATOM     19  O   UNL d   1     -17.876  19.758  26.638  0.00  0.00    -0.632 OA
BRANCH  18  20
ATOM     20  O   UNL d   1     -16.851  21.879  26.657  0.00  0.00    -0.307 OA
ATOM     21  H   UNL d   1     -16.260  21.795  27.425  0.00  0.00     0.222 HD
ENDBRANCH  18  20
BRANCH  18  22
ATOM     22  O   UNL d   1     -17.986  21.093  24.709  0.00  0.00    -0.307 OA
ATOM     23  H   UNL d   1     -17.539  21.181  23.848  0.00  0.00     0.222 HD
ENDBRANCH  18  22
ENDBRANCH  17  18
ENDBRANCH  16  17
ENDBRANCH   4  16
BRANCH   5  24
ATOM     24  O   UNL d   1     -14.696  21.123  20.937  0.00  0.00    -0.390 OA
ATOM     25  H   UNL d   1     -15.420  21.058  20.283  0.00  0.00     0.210 HD
ENDBRANCH   5  24
TORSDOF 10
ENDMDL
MODEL 8
REMARK VINA RESULT:      -4.2     12.725     14.258
REMARK  10 active torsions:
REMARK  status: ('A' for Active; 'I' for Inactive)
REMARK    1  A    between atoms: N_1  and  C_2 
REMARK    2  A    between atoms: C_2  and  C_3 
REMARK       I    between atoms: C_3  and  N_4 
REMARK    3  A    between atoms: N_4  and  C_6 
REMARK    4  A    between atoms: C_8  and  O_10 
REMARK    5  A    between atoms: C_9  and  C_12 
REMARK    6  A    between atoms: C_11  and  O_13 
REMARK    7  A    between atoms: C_12  and  O_14 
REMARK    8  A    between atoms: O_14  and  P_15 
REMARK    9  A    between atoms: P_15  and  O_17 
REMARK   10  A    between atoms: P_15  and  O_18 
ROOT
ATOM      1  C   UNL d   1     -14.499  27.303  36.841  0.00  0.00     0.255 C 
ATOM      2  O   UNL d   1     -15.650  27.371  35.990  0.00  0.00    -0.354 OA
ATOM      3  C   UNL d   1     -13.756  28.634  36.677  0.00  0.00     0.198 C 
ATOM      4  C   UNL d   1     -15.933  28.759  35.704  0.00  0.00     0.180 C 
ATOM      5  C   UNL d   1     -14.930  29.589  36.504  0.00  0.00     0.182 C 
ENDROOT
BRANCH   1   6
ATOM      6  N   UNL d   1     -13.738  26.162  36.443  0.00  0.00    -0.331 N 
ATOM      7  C   UNL d   1     -12.815  25.579  37.278  0.00  0.00     0.247 C 
ATOM      8  O   UNL d   1     -12.668  25.895  38.453  0.00  0.00    -0.272 OA
ATOM      9  H   UNL d   1     -13.743  25.863  35.474  0.00  0.00     0.165 HD
BRANCH   7  10
ATOM     10  C   UNL d   1     -12.021  24.443  36.626  0.00  0.00     0.368 C 
BRANCH  10  11
ATOM     11  N   UNL d   1     -10.605  24.472  37.046  0.00  0.00     0.087 N 
ATOM     12  H   UNL d   1     -10.249  23.516  37.010  0.00  0.00     0.313 HD
ATOM     13  H   UNL d   1     -10.574  24.734  38.035  0.00  0.00     0.313 HD
ENDBRANCH  10  11
ENDBRANCH   7  10
ENDBRANCH   1   6
BRANCH   3  14
ATOM     14  O   UNL d   1     -12.941  29.012  37.781  0.00  0.00    -0.389 OA
ATOM     15  H   UNL d   1     -12.103  29.349  37.407  0.00  0.00     0.210 HD
ENDBRANCH   3  14
BRANCH   4  16
ATOM     16  C   UNL d   1     -15.882  29.000  34.195  0.00  0.00     0.215 C 
BRANCH  16  17
ATOM     17  O   UNL d   1     -15.836  27.784  33.446  0.00  0.00    -0.294 OA
BRANCH  17  18
ATOM     18  P   UNL d   1     -14.549  27.798  32.289  0.00  0.00     0.390 P 
ATOM     19  O   UNL d   1     -13.399  27.812  31.253  0.00  0.00    -0.632 OA
BRANCH  18  20
ATOM     20  O   UNL d   1     -13.655  27.153  33.500  0.00  0.00    -0.307 OA
ATOM     21  H   UNL d   1     -13.951  26.254  33.726  0.00  0.00     0.222 HD
ENDBRANCH  18  20
BRANCH  18  22
ATOM     22  O   UNL d   1     -15.147  26.350  31.819  0.00  0.00    -0.307 OA
ATOM     23  H   UNL d   1     -14.421  25.895  31.353  0.00  0.00     0.222 HD
ENDBRANCH  18  22
ENDBRANCH  17  18
ENDBRANCH  16  17
ENDBRANCH   4  16
BRANCH   5  24
ATOM     24  O   UNL d   1     -15.458  29.922  37.803  0.00  0.00    -0.390 OA
ATOM     25  H   UNL d   1     -16.393  30.192  37.711  0.00  0.00     0.210 HD
ENDBRANCH   5  24
TORSDOF 10
ENDMDL
MODEL 9
REMARK VINA RESULT:      -4.2     28.469     31.488
REMARK  10 active torsions:
REMARK  status: ('A' for Active; 'I' for Inactive)
REMARK    1  A    between atoms: N_1  and  C_2 
REMARK    2  A    between atoms: C_2  and  C_3 
REMARK       I    between atoms: C_3  and  N_4 
REMARK    3  A    between atoms: N_4  and  C_6 
REMARK    4  A    between atoms: C_8  and  O_10 
REMARK    5  A    between atoms: C_9  and  C_12 
REMARK    6  A    between atoms: C_11  and  O_13 
REMARK    7  A    between atoms: C_12  and  O_14 
REMARK    8  A    between atoms: O_14  and  P_15 
REMARK    9  A    between atoms: P_15  and  O_17 
REMARK   10  A    between atoms: P_15  and  O_18 
ROOT
ATOM      1  C   UNL d   1     -31.067  -1.077  35.016  0.00  0.00     0.255 C 
ATOM      2  O   UNL d   1     -30.654  -2.366  35.485  0.00  0.00    -0.354 OA
ATOM      3  C   UNL d   1     -32.464  -0.829  35.597  0.00  0.00     0.198 C 
ATOM      4  C   UNL d   1     -31.433  -2.706  36.653  0.00  0.00     0.180 C 
ATOM      5  C   UNL d   1     -32.324  -1.501  36.956  0.00  0.00     0.182 C 
ENDROOT
BRANCH   1   6
ATOM      6  N   UNL d   1     -31.031  -1.108  33.589  0.00  0.00    -0.331 N 
ATOM      7  C   UNL d   1     -31.062   0.043  32.837  0.00  0.00     0.247 C 
ATOM      8  O   UNL d   1     -30.988   1.168  33.317  0.00  0.00    -0.272 OA
ATOM      9  H   UNL d   1     -31.152  -1.987  33.098  0.00  0.00     0.165 HD
BRANCH   7  10
ATOM     10  C   UNL d   1     -31.134  -0.205  31.328  0.00  0.00     0.368 C 
BRANCH  10  11
ATOM     11  N   UNL d   1     -32.442  -0.773  30.942  0.00  0.00     0.087 N 
ATOM     12  H   UNL d   1     -32.624  -1.576  31.547  0.00  0.00     0.313 HD
ATOM     13  H   UNL d   1     -32.352  -1.162  29.999  0.00  0.00     0.313 HD
ENDBRANCH  10  11
ENDBRANCH   7  10
ENDBRANCH   1   6
BRANCH   3  14
ATOM     14  O   UNL d   1     -32.828   0.540  35.733  0.00  0.00    -0.389 OA
ATOM     15  H   UNL d   1     -32.147   1.059  35.261  0.00  0.00     0.210 HD
ENDBRANCH   3  14
BRANCH   4  16
ATOM     16  C   UNL d   1     -32.201  -4.005  36.406  0.00  0.00     0.215 C 
BRANCH  16  17
ATOM     17  O   UNL d   1     -31.858  -4.617  35.162  0.00  0.00    -0.294 OA
BRANCH  17  18
ATOM     18  P   UNL d   1     -33.263  -4.963  34.214  0.00  0.00     0.390 P 
ATOM     19  O   UNL d   1     -34.521  -5.271  33.366  0.00  0.00    -0.632 OA
BRANCH  18  20
ATOM     20  O   UNL d   1     -32.981  -3.497  33.538  0.00  0.00    -0.307 OA
ATOM     21  H   UNL d   1     -32.108  -3.460  33.111  0.00  0.00     0.222 HD
ENDBRANCH  18  20
BRANCH  18  22
ATOM     22  O   UNL d   1     -32.225  -5.738  33.216  0.00  0.00    -0.307 OA
ATOM     23  H   UNL d   1     -31.337  -5.609  33.595  0.00  0.00     0.222 HD
ENDBRANCH  18  22
ENDBRANCH  17  18
ENDBRANCH  16  17
ENDBRANCH   4  16
BRANCH   5  24
ATOM     24  O   UNL d   1     -31.669  -0.592  37.863  0.00  0.00    -0.390 OA
ATOM     25  H   UNL d   1     -31.606   0.289  37.445  0.00  0.00     0.210 HD
ENDBRANCH   5  24
TORSDOF 10
ENDMDL
