MODEL 1
REMARK VINA RESULT:      -4.0      0.000      0.000
REMARK  6 active torsions:
REMARK  status: ('A' for Active; 'I' for Inactive)
REMARK    1  A    between atoms: O_1  and  C_2 
REMARK    2  A    between atoms: C_2  and  C_3 
REMARK    3  A    between atoms: C_3  and  C_5 
REMARK    4  A    between atoms: C_5  and  C_6 
REMARK    5  A    between atoms: C_6  and  C_7 
REMARK    6  A    between atoms: C_7  and  O_10 
ROOT
ATOM      1  C   UNL d   1       5.393  -1.985  24.775  0.00  0.00     0.101 C 
ENDROOT
BRANCH   1   2
ATOM      2  C   UNL d   1       5.040  -1.802  26.248  0.00  0.00     0.118 C 
BRANCH   2   3
ATOM      3  C   UNL d   1       3.613  -2.214  26.519  0.00  0.00     0.139 C 
ATOM      4  O   UNL d   1       2.652  -1.463  26.489  0.00  0.00    -0.650 OA
BRANCH   3   5
ATOM      5  O   UNL d   1       3.495  -3.530  26.804  0.00  0.00    -0.776 OA
ATOM      6  H   UNL d   1       2.669  -3.940  26.486  0.00  0.00     0.167 HD
ENDBRANCH   3   5
ENDBRANCH   2   3
ENDBRANCH   1   2
BRANCH   1   7
ATOM      7  C   UNL d   1       6.109  -3.288  24.521  0.00  0.00     0.222 C 
ATOM      8  O   UNL d   1       6.126  -4.257  25.274  0.00  0.00    -0.286 OA
BRANCH   7   9
ATOM      9  C   UNL d   1       6.875  -3.394  23.202  0.00  0.00     0.213 C 
ATOM     10  O   UNL d   1       6.384  -3.116  22.126  0.00  0.00    -0.644 OA
BRANCH   9  11
ATOM     11  O   UNL d   1       8.133  -3.826  23.403  0.00  0.00    -0.771 OA
ATOM     12  H   UNL d   1       8.770  -3.099  23.210  0.00  0.00     0.168 HD
ENDBRANCH   9  11
ENDBRANCH   7   9
ENDBRANCH   1   7
TORSDOF 6
ENDMDL
MODEL 2
REMARK VINA RESULT:      -3.9      1.133      4.248
REMARK  6 active torsions:
REMARK  status: ('A' for Active; 'I' for Inactive)
REMARK    1  A    between atoms: O_1  and  C_2 
REMARK    2  A    between atoms: C_2  and  C_3 
REMARK    3  A    between atoms: C_3  and  C_5 
REMARK    4  A    between atoms: C_5  and  C_6 
REMARK    5  A    between atoms: C_6  and  C_7 
REMARK    6  A    between atoms: C_7  and  O_10 
ROOT
ATOM      1  C   UNL d   1       5.422  -1.265  24.804  0.00  0.00     0.101 C 
ENDROOT
BRANCH   1   2
ATOM      2  C   UNL d   1       5.215  -2.620  24.135  0.00  0.00     0.118 C 
BRANCH   2   3
ATOM      3  C   UNL d   1       6.174  -3.648  24.685  0.00  0.00     0.139 C 
ATOM      4  O   UNL d   1       5.901  -4.465  25.549  0.00  0.00    -0.650 OA
BRANCH   3   5
ATOM      5  O   UNL d   1       7.398  -3.578  24.116  0.00  0.00    -0.776 OA
ATOM      6  H   UNL d   1       7.489  -4.089  23.289  0.00  0.00     0.167 HD
ENDBRANCH   3   5
ENDBRANCH   2   3
ENDBRANCH   1   2
BRANCH   1   7
ATOM      7  C   UNL d   1       4.731  -1.181  26.142  0.00  0.00     0.222 C 
ATOM      8  O   UNL d   1       5.205  -0.700  27.167  0.00  0.00    -0.286 OA
BRANCH   7   9
ATOM      9  C   UNL d   1       3.312  -1.748  26.208  0.00  0.00     0.213 C 
ATOM     10  O   UNL d   1       2.382  -1.283  25.579  0.00  0.00    -0.644 OA
BRANCH   9  11
ATOM     11  O   UNL d   1       3.248  -2.804  27.039  0.00  0.00    -0.771 OA
ATOM     12  H   UNL d   1       3.015  -3.615  26.529  0.00  0.00     0.168 HD
ENDBRANCH   9  11
ENDBRANCH   7   9
ENDBRANCH   1   7
TORSDOF 6
ENDMDL
MODEL 3
REMARK VINA RESULT:      -3.8      1.324      4.515
REMARK  6 active torsions:
REMARK  status: ('A' for Active; 'I' for Inactive)
REMARK    1  A    between atoms: O_1  and  C_2 
REMARK    2  A    between atoms: C_2  and  C_3 
REMARK    3  A    between atoms: C_3  and  C_5 
REMARK    4  A    between atoms: C_5  and  C_6 
REMARK    5  A    between atoms: C_6  and  C_7 
REMARK    6  A    between atoms: C_7  and  O_10 
ROOT
ATOM      1  C   UNL d   1       4.932  -2.847  24.378  0.00  0.00     0.101 C 
ENDROOT
BRANCH   1   2
ATOM      2  C   UNL d   1       6.348  -2.640  23.849  0.00  0.00     0.118 C 
BRANCH   2   3
ATOM      3  C   UNL d   1       6.914  -3.927  23.298  0.00  0.00     0.139 C 
ATOM      4  O   UNL d   1       6.290  -4.732  22.627  0.00  0.00    -0.650 OA
BRANCH   3   5
ATOM      5  O   UNL d   1       8.212  -4.109  23.626  0.00  0.00    -0.776 OA
ATOM      6  H   UNL d   1       8.470  -3.725  24.485  0.00  0.00     0.167 HD
ENDBRANCH   3   5
ENDBRANCH   2   3
ENDBRANCH   1   2
BRANCH   1   7
ATOM      7  C   UNL d   1       4.888  -2.870  25.885  0.00  0.00     0.222 C 
ATOM      8  O   UNL d   1       5.181  -3.824  26.598  0.00  0.00    -0.286 OA
BRANCH   7   9
ATOM      9  C   UNL d   1       4.437  -1.579  26.570  0.00  0.00     0.213 C 
ATOM     10  O   UNL d   1       5.213  -0.749  26.997  0.00  0.00    -0.644 OA
BRANCH   9  11
ATOM     11  O   UNL d   1       3.095  -1.500  26.625  0.00  0.00    -0.771 OA
ATOM     12  H   UNL d   1       2.697  -2.111  25.960  0.00  0.00     0.168 HD
ENDBRANCH   9  11
ENDBRANCH   7   9
ENDBRANCH   1   7
TORSDOF 6
ENDMDL
MODEL 4
REMARK VINA RESULT:      -3.7     21.134     23.268
REMARK  6 active torsions:
REMARK  status: ('A' for Active; 'I' for Inactive)
REMARK    1  A    between atoms: O_1  and  C_2 
REMARK    2  A    between atoms: C_2  and  C_3 
REMARK    3  A    between atoms: C_3  and  C_5 
REMARK    4  A    between atoms: C_5  and  C_6 
REMARK    5  A    between atoms: C_6  and  C_7 
REMARK    6  A    between atoms: C_7  and  O_10 
ROOT
ATOM      1  C   UNL d   1      -7.915  12.670  35.981  0.00  0.00     0.101 C 
ENDROOT
BRANCH   1   2
ATOM      2  C   UNL d   1      -7.962  14.139  36.394  0.00  0.00     0.118 C 
BRANCH   2   3
ATOM      3  C   UNL d   1      -8.970  14.901  35.569  0.00  0.00     0.139 C 
ATOM      4  O   UNL d   1      -8.693  15.656  34.651  0.00  0.00    -0.650 OA
BRANCH   3   5
ATOM      5  O   UNL d   1     -10.245  14.662  35.950  0.00  0.00    -0.776 OA
ATOM      6  H   UNL d   1     -10.356  13.878  36.520  0.00  0.00     0.167 HD
ENDBRANCH   3   5
ENDBRANCH   2   3
ENDBRANCH   1   2
BRANCH   1   7
ATOM      7  C   UNL d   1      -7.289  12.483  34.623  0.00  0.00     0.222 C 
ATOM      8  O   UNL d   1      -7.881  12.160  33.597  0.00  0.00    -0.286 OA
BRANCH   7   9
ATOM      9  C   UNL d   1      -5.781  12.723  34.531  0.00  0.00     0.213 C 
ATOM     10  O   UNL d   1      -4.957  11.870  34.793  0.00  0.00    -0.644 OA
BRANCH   9  11
ATOM     11  O   UNL d   1      -5.512  13.978  34.129  0.00  0.00    -0.771 OA
ATOM     12  H   UNL d   1      -6.144  14.245  33.420  0.00  0.00     0.168 HD
ENDBRANCH   9  11
ENDBRANCH   7   9
ENDBRANCH   1   7
TORSDOF 6
ENDMDL
MODEL 5
REMARK VINA RESULT:      -3.7     10.824     12.249
REMARK  6 active torsions:
REMARK  status: ('A' for Active; 'I' for Inactive)
REMARK    1  A    between atoms: O_1  and  C_2 
REMARK    2  A    between atoms: C_2  and  C_3 
REMARK    3  A    between atoms: C_3  and  C_5 
REMARK    4  A    between atoms: C_5  and  C_6 
REMARK    5  A    between atoms: C_6  and  C_7 
REMARK    6  A    between atoms: C_7  and  O_10 
ROOT
ATOM      1  C   UNL d   1       7.128 -13.947  28.472  0.00  0.00     0.101 C 
ENDROOT
BRANCH   1   2
ATOM      2  C   UNL d   1       8.259 -14.954  28.657  0.00  0.00     0.118 C 
BRANCH   2   3
ATOM      3  C   UNL d   1       8.820 -15.389  27.325  0.00  0.00     0.139 C 
ATOM      4  O   UNL d   1       8.359 -15.078  26.239  0.00  0.00    -0.650 OA
BRANCH   3   5
ATOM      5  O   UNL d   1       9.911 -16.177  27.449  0.00  0.00    -0.776 OA
ATOM      6  H   UNL d   1      10.540 -16.118  26.705  0.00  0.00     0.167 HD
ENDBRANCH   3   5
ENDBRANCH   2   3
ENDBRANCH   1   2
BRANCH   1   7
ATOM      7  C   UNL d   1       7.631 -12.526  28.455  0.00  0.00     0.222 C 
ATOM      8  O   UNL d   1       8.049 -11.924  27.470  0.00  0.00    -0.286 OA
BRANCH   7   9
ATOM      9  C   UNL d   1       7.609 -11.782  29.791  0.00  0.00     0.213 C 
ATOM     10  O   UNL d   1       6.711 -11.033  30.117  0.00  0.00    -0.644 OA
BRANCH   9  11
ATOM     11  O   UNL d   1       8.696 -12.074  30.528  0.00  0.00    -0.771 OA
ATOM     12  H   UNL d   1       9.489 -12.127  29.946  0.00  0.00     0.168 HD
ENDBRANCH   9  11
ENDBRANCH   7   9
ENDBRANCH   1   7
TORSDOF 6
ENDMDL
MODEL 6
REMARK VINA RESULT:      -3.7     10.879     11.832
REMARK  6 active torsions:
REMARK  status: ('A' for Active; 'I' for Inactive)
REMARK    1  A    between atoms: O_1  and  C_2 
REMARK    2  A    between atoms: C_2  and  C_3 
REMARK    3  A    between atoms: C_3  and  C_5 
REMARK    4  A    between atoms: C_5  and  C_6 
REMARK    5  A    between atoms: C_6  and  C_7 
REMARK    6  A    between atoms: C_7  and  O_10 
ROOT
ATOM      1  C   UNL d   1       7.007 -13.539  27.750  0.00  0.00     0.101 C 
ENDROOT
BRANCH   1   2
ATOM      2  C   UNL d   1       7.632 -12.169  27.999  0.00  0.00     0.118 C 
BRANCH   2   3
ATOM      3  C   UNL d   1       7.724 -11.876  29.476  0.00  0.00     0.139 C 
ATOM      4  O   UNL d   1       7.006 -11.095  30.079  0.00  0.00    -0.650 OA
BRANCH   3   5
ATOM      5  O   UNL d   1       8.703 -12.579  30.088  0.00  0.00    -0.776 OA
ATOM      6  H   UNL d   1       8.409 -13.422  30.484  0.00  0.00     0.167 HD
ENDBRANCH   3   5
ENDBRANCH   2   3
ENDBRANCH   1   2
BRANCH   1   7
ATOM      7  C   UNL d   1       7.893 -14.423  26.909  0.00  0.00     0.222 C 
ATOM      8  O   UNL d   1       7.992 -14.386  25.686  0.00  0.00    -0.286 OA
BRANCH   7   9
ATOM      9  C   UNL d   1       8.737 -15.451  27.664  0.00  0.00     0.213 C 
ATOM     10  O   UNL d   1       8.463 -16.633  27.705  0.00  0.00    -0.644 OA
BRANCH   9  11
ATOM     11  O   UNL d   1       9.797 -14.870  28.255  0.00  0.00    -0.771 OA
ATOM     12  H   UNL d   1      10.072 -15.397  29.041  0.00  0.00     0.168 HD
ENDBRANCH   9  11
ENDBRANCH   7   9
ENDBRANCH   1   7
TORSDOF 6
ENDMDL
MODEL 7
REMARK VINA RESULT:      -3.6      1.336      2.180
REMARK  6 active torsions:
REMARK  status: ('A' for Active; 'I' for Inactive)
REMARK    1  A    between atoms: O_1  and  C_2 
REMARK    2  A    between atoms: C_2  and  C_3 
REMARK    3  A    between atoms: C_3  and  C_5 
REMARK    4  A    between atoms: C_5  and  C_6 
REMARK    5  A    between atoms: C_6  and  C_7 
REMARK    6  A    between atoms: C_7  and  O_10 
ROOT
ATOM      1  C   UNL d   1       4.387  -1.858  24.118  0.00  0.00     0.101 C 
ENDROOT
BRANCH   1   2
ATOM      2  C   UNL d   1       4.982  -0.731  24.957  0.00  0.00     0.118 C 
BRANCH   2   3
ATOM      3  C   UNL d   1       4.719  -0.953  26.427  0.00  0.00     0.139 C 
ATOM      4  O   UNL d   1       5.410  -0.517  27.333  0.00  0.00    -0.650 OA
BRANCH   3   5
ATOM      5  O   UNL d   1       3.615  -1.699  26.653  0.00  0.00    -0.776 OA
ATOM      6  H   UNL d   1       3.792  -2.572  27.051  0.00  0.00     0.167 HD
ENDBRANCH   3   5
ENDBRANCH   2   3
ENDBRANCH   1   2
BRANCH   1   7
ATOM      7  C   UNL d   1       5.452  -2.698  23.459  0.00  0.00     0.222 C 
ATOM      8  O   UNL d   1       5.718  -2.711  22.261  0.00  0.00    -0.286 OA
BRANCH   7   9
ATOM      9  C   UNL d   1       6.266  -3.607  24.381  0.00  0.00     0.213 C 
ATOM     10  O   UNL d   1       5.779  -4.210  25.316  0.00  0.00    -0.644 OA
BRANCH   9  11
ATOM     11  O   UNL d   1       7.560  -3.640  24.014  0.00  0.00    -0.771 OA
ATOM     12  H   UNL d   1       7.788  -2.818  23.519  0.00  0.00     0.168 HD
ENDBRANCH   9  11
ENDBRANCH   7   9
ENDBRANCH   1   7
TORSDOF 6
ENDMDL
MODEL 8
REMARK VINA RESULT:      -3.6     17.733     20.281
REMARK  6 active torsions:
REMARK  status: ('A' for Active; 'I' for Inactive)
REMARK    1  A    between atoms: O_1  and  C_2 
REMARK    2  A    between atoms: C_2  and  C_3 
REMARK    3  A    between atoms: C_3  and  C_5 
REMARK    4  A    between atoms: C_5  and  C_6 
REMARK    5  A    between atoms: C_6  and  C_7 
REMARK    6  A    between atoms: C_7  and  O_10 
ROOT
ATOM      1  C   UNL d   1      -7.160  11.338  32.757  0.00  0.00     0.101 C 
ENDROOT
BRANCH   1   2
ATOM      2  C   UNL d   1      -7.233  12.159  34.041  0.00  0.00     0.118 C 
BRANCH   2   3
ATOM      3  C   UNL d   1      -7.135  13.636  33.746  0.00  0.00     0.139 C 
ATOM      4  O   UNL d   1      -6.133  14.314  33.901  0.00  0.00    -0.650 OA
BRANCH   3   5
ATOM      5  O   UNL d   1      -8.293  14.153  33.280  0.00  0.00    -0.776 OA
ATOM      6  H   UNL d   1      -8.707  14.814  33.867  0.00  0.00     0.167 HD
ENDBRANCH   3   5
ENDBRANCH   2   3
ENDBRANCH   1   2
BRANCH   1   7
ATOM      7  C   UNL d   1      -6.116  10.253  32.836  0.00  0.00     0.222 C 
ATOM      8  O   UNL d   1      -5.261  10.140  33.709  0.00  0.00    -0.286 OA
BRANCH   7   9
ATOM      9  C   UNL d   1      -6.139   9.207  31.720  0.00  0.00     0.213 C 
ATOM     10  O   UNL d   1      -6.544   9.443  30.599  0.00  0.00    -0.644 OA
BRANCH   9  11
ATOM     11  O   UNL d   1      -5.658   8.027  32.149  0.00  0.00    -0.771 OA
ATOM     12  H   UNL d   1      -5.520   8.058  33.125  0.00  0.00     0.168 HD
ENDBRANCH   9  11
ENDBRANCH   7   9
ENDBRANCH   1   7
TORSDOF 6
ENDMDL
MODEL 9
REMARK VINA RESULT:      -3.6     19.100     21.223
REMARK  6 active torsions:
REMARK  status: ('A' for Active; 'I' for Inactive)
REMARK    1  A    between atoms: O_1  and  C_2 
REMARK    2  A    between atoms: C_2  and  C_3 
REMARK    3  A    between atoms: C_3  and  C_5 
REMARK    4  A    between atoms: C_5  and  C_6 
REMARK    5  A    between atoms: C_6  and  C_7 
REMARK    6  A    between atoms: C_7  and  O_10 
ROOT
ATOM      1  C   UNL d   1      -6.730  12.653  33.723  0.00  0.00     0.101 C 
ENDROOT
BRANCH   1   2
ATOM      2  C   UNL d   1      -7.233  12.616  35.163  0.00  0.00     0.118 C 
BRANCH   2   3
ATOM      3  C   UNL d   1      -6.218  13.213  36.107  0.00  0.00     0.139 C 
ATOM      4  O   UNL d   1      -6.451  13.564  37.252  0.00  0.00    -0.650 OA
BRANCH   3   5
ATOM      5  O   UNL d   1      -4.991  13.325  35.552  0.00  0.00    -0.776 OA
ATOM      6  H   UNL d   1      -4.991  13.372  34.577  0.00  0.00     0.167 HD
ENDBRANCH   3   5
ENDBRANCH   2   3
ENDBRANCH   1   2
BRANCH   1   7
ATOM      7  C   UNL d   1      -7.303  11.533  32.893  0.00  0.00     0.222 C 
ATOM      8  O   UNL d   1      -8.440  11.487  32.433  0.00  0.00    -0.286 OA
BRANCH   7   9
ATOM      9  C   UNL d   1      -6.369  10.356  32.605  0.00  0.00     0.213 C 
ATOM     10  O   UNL d   1      -5.628   9.879  33.440  0.00  0.00    -0.644 OA
BRANCH   9  11
ATOM     11  O   UNL d   1      -6.489   9.940  31.332  0.00  0.00    -0.771 OA
ATOM     12  H   UNL d   1      -6.248  10.672  30.717  0.00  0.00     0.168 HD
ENDBRANCH   9  11
ENDBRANCH   7   9
ENDBRANCH   1   7
TORSDOF 6
ENDMDL
