MODEL 1
REMARK VINA RESULT:      -3.7      0.000      0.000
REMARK  2 active torsions:
REMARK  status: ('A' for Active; 'I' for Inactive)
REMARK    1  A    between atoms: C_2  and  O_1 
REMARK    2  A    between atoms: C_3  and  C_2 
ROOT
ATOM      1  C   UNL d   1       1.780  30.333  34.780  0.00  0.00     0.213 C 
ATOM      2  O   UNL d   1       1.908  30.158  35.974  0.00  0.00    -0.644 OA
ENDROOT
BRANCH   1   3
ATOM      3  C   UNL d   1       2.087  29.262  33.739  0.00  0.00     0.218 C 
ATOM      4  C   UNL d   1       0.918  28.536  33.151  0.00  0.00     0.103 C 
ATOM      5  O   UNL d   1       3.265  29.065  33.453  0.00  0.00    -0.286 OA
ENDBRANCH   1   3
BRANCH   1   6
ATOM      6  O   UNL d   1       1.358  31.464  34.184  0.00  0.00    -0.771 OA
ATOM      7  H   UNL d   1       0.372  31.465  34.155  0.00  0.00     0.168 HD
ENDBRANCH   1   6
TORSDOF 2
ENDMDL
MODEL 2
REMARK VINA RESULT:      -3.6      4.237      4.813
REMARK  2 active torsions:
REMARK  status: ('A' for Active; 'I' for Inactive)
REMARK    1  A    between atoms: C_2  and  O_1 
REMARK    2  A    between atoms: C_3  and  C_2 
ROOT
ATOM      1  C   UNL d   1       2.724  27.456  37.133  0.00  0.00     0.213 C 
ATOM      2  O   UNL d   1       3.933  27.486  37.040  0.00  0.00    -0.644 OA
ENDROOT
BRANCH   1   3
ATOM      3  C   UNL d   1       1.977  26.479  38.034  0.00  0.00     0.218 C 
ATOM      4  C   UNL d   1       1.499  25.209  37.405  0.00  0.00     0.103 C 
ATOM      5  O   UNL d   1       1.815  26.797  39.209  0.00  0.00    -0.286 OA
ENDBRANCH   1   3
BRANCH   1   6
ATOM      6  O   UNL d   1       1.857  28.254  36.481  0.00  0.00    -0.771 OA
ATOM      7  H   UNL d   1       0.937  28.022  36.755  0.00  0.00     0.168 HD
ENDBRANCH   1   6
TORSDOF 2
ENDMDL
MODEL 3
REMARK VINA RESULT:      -3.5      8.651      9.562
REMARK  2 active torsions:
REMARK  status: ('A' for Active; 'I' for Inactive)
REMARK    1  A    between atoms: C_2  and  O_1 
REMARK    2  A    between atoms: C_3  and  C_2 
ROOT
ATOM      1  C   UNL d   1      11.648  29.044  35.392  0.00  0.00     0.213 C 
ATOM      2  O   UNL d   1      12.086  28.492  34.404  0.00  0.00    -0.644 OA
ENDROOT
BRANCH   1   3
ATOM      3  C   UNL d   1      10.305  29.765  35.423  0.00  0.00     0.218 C 
ATOM      4  C   UNL d   1      10.241  31.103  34.756  0.00  0.00     0.103 C 
ATOM      5  O   UNL d   1       9.370  29.206  35.990  0.00  0.00    -0.286 OA
ENDBRANCH   1   3
BRANCH   1   6
ATOM      6  O   UNL d   1      12.249  29.113  36.595  0.00  0.00    -0.771 OA
ATOM      7  H   UNL d   1      13.118  29.571  36.495  0.00  0.00     0.168 HD
ENDBRANCH   1   6
TORSDOF 2
ENDMDL
MODEL 4
REMARK VINA RESULT:      -3.5     16.719     17.508
REMARK  2 active torsions:
REMARK  status: ('A' for Active; 'I' for Inactive)
REMARK    1  A    between atoms: C_2  and  O_1 
REMARK    2  A    between atoms: C_3  and  C_2 
ROOT
ATOM      1  C   UNL d   1      19.071  32.400  33.458  0.00  0.00     0.213 C 
ATOM      2  O   UNL d   1      18.551  31.310  33.570  0.00  0.00    -0.644 OA
ENDROOT
BRANCH   1   3
ATOM      3  C   UNL d   1      18.489  33.674  34.063  0.00  0.00     0.218 C 
ATOM      4  C   UNL d   1      19.452  34.775  34.374  0.00  0.00     0.103 C 
ATOM      5  O   UNL d   1      17.277  33.711  34.255  0.00  0.00    -0.286 OA
ENDBRANCH   1   3
BRANCH   1   6
ATOM      6  O   UNL d   1      20.216  32.670  32.802  0.00  0.00    -0.771 OA
ATOM      7  H   UNL d   1      20.797  31.872  32.824  0.00  0.00     0.168 HD
ENDBRANCH   1   6
TORSDOF 2
ENDMDL
MODEL 5
REMARK VINA RESULT:      -3.5     17.655     18.132
REMARK  2 active torsions:
REMARK  status: ('A' for Active; 'I' for Inactive)
REMARK    1  A    between atoms: C_2  and  O_1 
REMARK    2  A    between atoms: C_3  and  C_2 
ROOT
ATOM      1  C   UNL d   1      20.064  29.534  34.462  0.00  0.00     0.213 C 
ATOM      2  O   UNL d   1      20.558  29.212  33.403  0.00  0.00    -0.644 OA
ENDROOT
BRANCH   1   3
ATOM      3  C   UNL d   1      19.549  30.939  34.755  0.00  0.00     0.218 C 
ATOM      4  C   UNL d   1      19.431  31.872  33.592  0.00  0.00     0.103 C 
ATOM      5  O   UNL d   1      19.269  31.212  35.919  0.00  0.00    -0.286 OA
ENDBRANCH   1   3
BRANCH   1   6
ATOM      6  O   UNL d   1      19.887  28.734  35.532  0.00  0.00    -0.771 OA
ATOM      7  H   UNL d   1      20.171  29.217  36.345  0.00  0.00     0.168 HD
ENDBRANCH   1   6
TORSDOF 2
ENDMDL
MODEL 6
REMARK VINA RESULT:      -3.4      8.083      8.635
REMARK  2 active torsions:
REMARK  status: ('A' for Active; 'I' for Inactive)
REMARK    1  A    between atoms: C_2  and  O_1 
REMARK    2  A    between atoms: C_3  and  C_2 
ROOT
ATOM      1  C   UNL d   1      10.388  31.250  34.661  0.00  0.00     0.213 C 
ATOM      2  O   UNL d   1      11.285  31.063  35.456  0.00  0.00    -0.644 OA
ENDROOT
BRANCH   1   3
ATOM      3  C   UNL d   1      10.483  30.876  33.186  0.00  0.00     0.218 C 
ATOM      4  C   UNL d   1       9.285  31.165  32.337  0.00  0.00     0.103 C 
ATOM      5  O   UNL d   1      11.528  30.365  32.793  0.00  0.00    -0.286 OA
ENDBRANCH   1   3
BRANCH   1   6
ATOM      6  O   UNL d   1       9.190  31.801  34.932  0.00  0.00    -0.771 OA
ATOM      7  H   UNL d   1       8.536  31.499  34.257  0.00  0.00     0.168 HD
ENDBRANCH   1   6
TORSDOF 2
ENDMDL
MODEL 7
REMARK VINA RESULT:      -3.0     17.270     17.796
REMARK  2 active torsions:
REMARK  status: ('A' for Active; 'I' for Inactive)
REMARK    1  A    between atoms: C_2  and  O_1 
REMARK    2  A    between atoms: C_3  and  C_2 
ROOT
ATOM      1  C   UNL d   1      19.218  32.524  33.954  0.00  0.00     0.213 C 
ATOM      2  O   UNL d   1      19.544  32.948  32.866  0.00  0.00    -0.644 OA
ENDROOT
BRANCH   1   3
ATOM      3  C   UNL d   1      19.689  31.183  34.506  0.00  0.00     0.218 C 
ATOM      4  C   UNL d   1      20.471  30.307  33.579  0.00  0.00     0.103 C 
ATOM      5  O   UNL d   1      19.396  30.910  35.667  0.00  0.00    -0.286 OA
ENDBRANCH   1   3
BRANCH   1   6
ATOM      6  O   UNL d   1      18.411  33.141  34.838  0.00  0.00    -0.771 OA
ATOM      7  H   UNL d   1      18.878  33.216  35.704  0.00  0.00     0.168 HD
ENDBRANCH   1   6
TORSDOF 2
ENDMDL
MODEL 8
REMARK VINA RESULT:      -3.0     16.768     17.460
REMARK  2 active torsions:
REMARK  status: ('A' for Active; 'I' for Inactive)
REMARK    1  A    between atoms: C_2  and  O_1 
REMARK    2  A    between atoms: C_3  and  C_2 
ROOT
ATOM      1  C   UNL d   1      18.309  33.080  33.412  0.00  0.00     0.213 C 
ATOM      2  O   UNL d   1      17.549  33.731  34.096  0.00  0.00    -0.644 OA
ENDROOT
BRANCH   1   3
ATOM      3  C   UNL d   1      19.199  33.690  32.334  0.00  0.00     0.218 C 
ATOM      4  C   UNL d   1      20.224  32.793  31.716  0.00  0.00     0.103 C 
ATOM      5  O   UNL d   1      19.019  34.870  32.048  0.00  0.00    -0.286 OA
ENDBRANCH   1   3
BRANCH   1   6
ATOM      6  O   UNL d   1      18.497  31.748  33.480  0.00  0.00    -0.771 OA
ATOM      7  H   UNL d   1      18.162  31.419  34.348  0.00  0.00     0.168 HD
ENDBRANCH   1   6
TORSDOF 2
ENDMDL
MODEL 9
REMARK VINA RESULT:      -2.9     13.897     14.702
REMARK  2 active torsions:
REMARK  status: ('A' for Active; 'I' for Inactive)
REMARK    1  A    between atoms: C_2  and  O_1 
REMARK    2  A    between atoms: C_3  and  C_2 
ROOT
ATOM      1  C   UNL d   1     -11.504  33.846  36.172  0.00  0.00     0.213 C 
ATOM      2  O   UNL d   1     -12.228  34.045  35.219  0.00  0.00    -0.644 OA
ENDROOT
BRANCH   1   3
ATOM      3  C   UNL d   1     -11.999  33.837  37.614  0.00  0.00     0.218 C 
ATOM      4  C   UNL d   1     -11.142  34.527  38.627  0.00  0.00     0.103 C 
ATOM      5  O   UNL d   1     -13.060  33.266  37.849  0.00  0.00    -0.286 OA
ENDBRANCH   1   3
BRANCH   1   6
ATOM      6  O   UNL d   1     -10.180  33.605  36.126  0.00  0.00    -0.771 OA
ATOM      7  H   UNL d   1      -9.931  33.025  36.885  0.00  0.00     0.168 HD
ENDBRANCH   1   6
TORSDOF 2
ENDMDL
