MODEL 1
REMARK VINA RESULT:      -6.2      0.000      0.000
REMARK  5 active torsions:
REMARK  status: ('A' for Active; 'I' for Inactive)
REMARK    1  A    between atoms: C_12  and  C_10 
REMARK    2  A    between atoms: C_10  and  C_13 
REMARK    3  A    between atoms: C_14  and  C_12 
REMARK    4  A    between atoms: C_17  and  C_14 
REMARK    5  A    between atoms: N_20  and  C_17 
ROOT
ATOM      1  N   UNL d   1      -7.892 -25.410 -18.789  0.00  0.00    -0.191 NA
ATOM      2  C   UNL d   1      -8.441 -26.389 -18.481  0.00  0.00     0.099 C 
ATOM      3  C   UNL d   1      -9.113 -27.595 -18.100  0.00  0.00     0.045 A 
ATOM      4  C   UNL d   1      -8.957 -28.760 -18.874  0.00  0.00     0.023 A 
ATOM      5  C   UNL d   1      -9.912 -27.622 -16.953  0.00  0.00     0.032 A 
ATOM      6  C   UNL d   1      -9.601 -29.949 -18.512  0.00  0.00     0.012 A 
ATOM      7  C   UNL d   1     -10.544 -28.812 -16.613  0.00  0.00    -0.023 A 
ATOM      8  C   UNL d   1     -10.406 -29.962 -17.380  0.00  0.00    -0.011 A 
ATOM      9  C   UNL d   1     -11.405 -29.089 -15.441  0.00  0.00     0.209 A 
ATOM     10  C   UNL d   1     -11.179 -31.088 -16.743  0.00  0.00     0.116 A 
ATOM     11  O   UNL d   1     -11.733 -30.490 -15.531  0.00  0.00    -0.366 OA
ENDROOT
BRANCH  10  12
ATOM     12  C   UNL d   1     -10.296 -32.275 -16.284  0.00  0.00     0.050 C 
BRANCH  12  13
ATOM     13  C   UNL d   1      -9.797 -32.211 -14.835  0.00  0.00     0.034 C 
BRANCH  13  14
ATOM     14  C   UNL d   1      -8.464 -31.446 -14.781  0.00  0.00     0.271 C 
BRANCH  14  15
ATOM     15  N   UNL d   1      -8.426 -30.397 -13.750  0.00  0.00     0.080 N 
ATOM     16  C   UNL d   1      -7.764 -30.854 -12.527  0.00  0.00     0.309 C 
ATOM     17  C   UNL d   1      -7.726 -29.217 -14.271  0.00  0.00     0.309 C 
ENDBRANCH  14  15
ENDBRANCH  13  14
ENDBRANCH  12  13
ENDBRANCH  10  12
BRANCH  10  18
ATOM     18  C   UNL d   1     -12.333 -31.625 -17.615  0.00  0.00    -0.019 A 
ATOM     19  C   UNL d   1     -13.580 -30.972 -17.662  0.00  0.00     0.013 A 
ATOM     20  C   UNL d   1     -14.645 -31.495 -18.400  0.00  0.00     0.043 A 
ATOM     21  C   UNL d   1     -14.479 -32.679 -19.104  0.00  0.00     0.116 A 
ATOM     22  F   UNL d   1     -15.503 -33.185 -19.803  0.00  0.00    -0.206 F 
ATOM     23  C   UNL d   1     -13.264 -33.349 -19.085  0.00  0.00     0.043 A 
ATOM     24  C   UNL d   1     -12.199 -32.826 -18.346  0.00  0.00     0.013 A 
ENDBRANCH  10  18
TORSDOF 5
ENDMDL
MODEL 2
REMARK VINA RESULT:      -5.6      1.834      2.274
REMARK  5 active torsions:
REMARK  status: ('A' for Active; 'I' for Inactive)
REMARK    1  A    between atoms: C_12  and  C_10 
REMARK    2  A    between atoms: C_10  and  C_13 
REMARK    3  A    between atoms: C_14  and  C_12 
REMARK    4  A    between atoms: C_17  and  C_14 
REMARK    5  A    between atoms: N_20  and  C_17 
ROOT
ATOM      1  N   UNL d   1      -9.037 -24.106 -16.886  0.00  0.00    -0.191 NA
ATOM      2  C   UNL d   1      -9.303 -25.235 -16.976  0.00  0.00     0.099 C 
ATOM      3  C   UNL d   1      -9.625 -26.626 -17.085  0.00  0.00     0.045 A 
ATOM      4  C   UNL d   1      -9.388 -27.309 -18.293  0.00  0.00     0.023 A 
ATOM      5  C   UNL d   1     -10.163 -27.311 -15.992  0.00  0.00     0.032 A 
ATOM      6  C   UNL d   1      -9.691 -28.671 -18.415  0.00  0.00     0.012 A 
ATOM      7  C   UNL d   1     -10.460 -28.661 -16.135  0.00  0.00    -0.023 A 
ATOM      8  C   UNL d   1     -10.240 -29.339 -17.328  0.00  0.00    -0.011 A 
ATOM      9  C   UNL d   1     -11.000 -29.592 -15.119  0.00  0.00     0.209 A 
ATOM     10  C   UNL d   1     -10.627 -30.786 -17.164  0.00  0.00     0.116 A 
ATOM     11  O   UNL d   1     -11.045 -30.880 -15.766  0.00  0.00    -0.366 OA
ENDROOT
BRANCH  10  12
ATOM     12  C   UNL d   1      -9.447 -31.775 -17.337  0.00  0.00     0.050 C 
BRANCH  12  13
ATOM     13  C   UNL d   1      -8.104 -31.315 -16.756  0.00  0.00     0.034 C 
BRANCH  13  14
ATOM     14  C   UNL d   1      -7.076 -31.164 -17.889  0.00  0.00     0.271 C 
BRANCH  14  15
ATOM     15  N   UNL d   1      -6.070 -30.119 -17.640  0.00  0.00     0.080 N 
ATOM     16  C   UNL d   1      -5.779 -29.340 -18.845  0.00  0.00     0.309 C 
ATOM     17  C   UNL d   1      -6.544 -29.219 -16.581  0.00  0.00     0.309 C 
ENDBRANCH  14  15
ENDBRANCH  13  14
ENDBRANCH  12  13
ENDBRANCH  10  12
BRANCH  10  18
ATOM     18  C   UNL d   1     -11.793 -31.228 -18.071  0.00  0.00    -0.019 A 
ATOM     19  C   UNL d   1     -13.131 -31.133 -17.643  0.00  0.00     0.013 A 
ATOM     20  C   UNL d   1     -14.183 -31.594 -18.440  0.00  0.00     0.043 A 
ATOM     21  C   UNL d   1     -13.912 -32.156 -19.679  0.00  0.00     0.116 A 
ATOM     22  F   UNL d   1     -14.919 -32.607 -20.437  0.00  0.00    -0.206 F 
ATOM     23  C   UNL d   1     -12.607 -32.263 -20.137  0.00  0.00     0.043 A 
ATOM     24  C   UNL d   1     -11.555 -31.803 -19.340  0.00  0.00     0.013 A 
ENDBRANCH  10  18
TORSDOF 5
ENDMDL
MODEL 3
REMARK VINA RESULT:      -5.3     13.521     15.533
REMARK  5 active torsions:
REMARK  status: ('A' for Active; 'I' for Inactive)
REMARK    1  A    between atoms: C_12  and  C_10 
REMARK    2  A    between atoms: C_10  and  C_13 
REMARK    3  A    between atoms: C_14  and  C_12 
REMARK    4  A    between atoms: C_17  and  C_14 
REMARK    5  A    between atoms: N_20  and  C_17 
ROOT
ATOM      1  N   UNL d   1       0.581 -29.580 -34.211  0.00  0.00    -0.191 NA
ATOM      2  C   UNL d   1       0.142 -29.993 -33.216  0.00  0.00     0.099 C 
ATOM      3  C   UNL d   1      -0.396 -30.498 -31.988  0.00  0.00     0.045 A 
ATOM      4  C   UNL d   1       0.391 -31.323 -31.163  0.00  0.00     0.023 A 
ATOM      5  C   UNL d   1      -1.696 -30.162 -31.599  0.00  0.00     0.032 A 
ATOM      6  C   UNL d   1      -0.117 -31.819 -29.956  0.00  0.00     0.012 A 
ATOM      7  C   UNL d   1      -2.182 -30.667 -30.400  0.00  0.00    -0.023 A 
ATOM      8  C   UNL d   1      -1.415 -31.493 -29.587  0.00  0.00    -0.011 A 
ATOM      9  C   UNL d   1      -3.500 -30.427 -29.772  0.00  0.00     0.209 A 
ATOM     10  C   UNL d   1      -2.198 -31.850 -28.349  0.00  0.00     0.116 A 
ATOM     11  O   UNL d   1      -3.456 -31.123 -28.510  0.00  0.00    -0.366 OA
ENDROOT
BRANCH  10  12
ATOM     12  C   UNL d   1      -1.560 -31.338 -27.034  0.00  0.00     0.050 C 
BRANCH  12  13
ATOM     13  C   UNL d   1      -2.109 -30.008 -26.502  0.00  0.00     0.034 C 
BRANCH  13  14
ATOM     14  C   UNL d   1      -1.045 -28.909 -26.663  0.00  0.00     0.271 C 
BRANCH  14  15
ATOM     15  N   UNL d   1      -1.536 -27.707 -27.354  0.00  0.00     0.080 N 
ATOM     16  C   UNL d   1      -1.052 -27.633 -28.734  0.00  0.00     0.309 C 
ATOM     17  C   UNL d   1      -3.003 -27.699 -27.351  0.00  0.00     0.309 C 
ENDBRANCH  14  15
ENDBRANCH  13  14
ENDBRANCH  12  13
ENDBRANCH  10  12
BRANCH  10  18
ATOM     18  C   UNL d   1      -2.498 -33.356 -28.212  0.00  0.00    -0.019 A 
ATOM     19  C   UNL d   1      -1.520 -34.259 -27.751  0.00  0.00     0.013 A 
ATOM     20  C   UNL d   1      -1.771 -35.632 -27.690  0.00  0.00     0.043 A 
ATOM     21  C   UNL d   1      -3.006 -36.124 -28.088  0.00  0.00     0.116 A 
ATOM     22  F   UNL d   1      -3.243 -37.441 -28.038  0.00  0.00    -0.206 F 
ATOM     23  C   UNL d   1      -3.996 -35.266 -28.544  0.00  0.00     0.043 A 
ATOM     24  C   UNL d   1      -3.744 -33.892 -28.606  0.00  0.00     0.013 A 
ENDBRANCH  10  18
TORSDOF 5
ENDMDL
MODEL 4
REMARK VINA RESULT:      -4.9     11.841     13.448
REMARK  5 active torsions:
REMARK  status: ('A' for Active; 'I' for Inactive)
REMARK    1  A    between atoms: C_12  and  C_10 
REMARK    2  A    between atoms: C_10  and  C_13 
REMARK    3  A    between atoms: C_14  and  C_12 
REMARK    4  A    between atoms: C_17  and  C_14 
REMARK    5  A    between atoms: N_20  and  C_17 
ROOT
ATOM      1  N   UNL d   1      -3.913 -20.910 -28.946  0.00  0.00    -0.191 NA
ATOM      2  C   UNL d   1      -4.356 -21.982 -28.863  0.00  0.00     0.099 C 
ATOM      3  C   UNL d   1      -4.897 -23.305 -28.763  0.00  0.00     0.045 A 
ATOM      4  C   UNL d   1      -5.214 -24.024 -29.930  0.00  0.00     0.023 A 
ATOM      5  C   UNL d   1      -5.099 -23.888 -27.509  0.00  0.00     0.032 A 
ATOM      6  C   UNL d   1      -5.737 -25.321 -29.850  0.00  0.00     0.012 A 
ATOM      7  C   UNL d   1      -5.622 -25.174 -27.451  0.00  0.00    -0.023 A 
ATOM      8  C   UNL d   1      -5.949 -25.885 -28.599  0.00  0.00    -0.011 A 
ATOM      9  C   UNL d   1      -5.891 -26.000 -26.253  0.00  0.00     0.209 A 
ATOM     10  C   UNL d   1      -6.460 -27.251 -28.217  0.00  0.00     0.116 A 
ATOM     11  O   UNL d   1      -6.355 -27.268 -26.759  0.00  0.00    -0.366 OA
ENDROOT
BRANCH  10  12
ATOM     12  C   UNL d   1      -5.581 -28.417 -28.734  0.00  0.00     0.050 C 
BRANCH  12  13
ATOM     13  C   UNL d   1      -4.066 -28.228 -28.578  0.00  0.00     0.034 C 
BRANCH  13  14
ATOM     14  C   UNL d   1      -3.347 -28.761 -29.828  0.00  0.00     0.271 C 
BRANCH  14  15
ATOM     15  N   UNL d   1      -2.802 -30.118 -29.663  0.00  0.00     0.080 N 
ATOM     16  C   UNL d   1      -1.647 -30.354 -30.531  0.00  0.00     0.309 C 
ATOM     17  C   UNL d   1      -2.410 -30.327 -28.264  0.00  0.00     0.309 C 
ENDBRANCH  14  15
ENDBRANCH  13  14
ENDBRANCH  12  13
ENDBRANCH  10  12
BRANCH  10  18
ATOM     18  C   UNL d   1      -7.926 -27.506 -28.621  0.00  0.00    -0.019 A 
ATOM     19  C   UNL d   1      -8.249 -28.180 -29.815  0.00  0.00     0.013 A 
ATOM     20  C   UNL d   1      -9.578 -28.352 -30.213  0.00  0.00     0.043 A 
ATOM     21  C   UNL d   1     -10.604 -27.855 -29.423  0.00  0.00     0.116 A 
ATOM     22  F   UNL d   1     -11.876 -28.011 -29.810  0.00  0.00    -0.206 F 
ATOM     23  C   UNL d   1     -10.325 -27.189 -28.238  0.00  0.00     0.043 A 
ATOM     24  C   UNL d   1      -8.995 -27.015 -27.840  0.00  0.00     0.013 A 
ENDBRANCH  10  18
TORSDOF 5
ENDMDL
MODEL 5
REMARK VINA RESULT:      -4.8     12.339     13.917
REMARK  5 active torsions:
REMARK  status: ('A' for Active; 'I' for Inactive)
REMARK    1  A    between atoms: C_12  and  C_10 
REMARK    2  A    between atoms: C_10  and  C_13 
REMARK    3  A    between atoms: C_14  and  C_12 
REMARK    4  A    between atoms: C_17  and  C_14 
REMARK    5  A    between atoms: N_20  and  C_17 
ROOT
ATOM      1  N   UNL d   1      -1.937 -21.615 -28.016  0.00  0.00    -0.191 NA
ATOM      2  C   UNL d   1      -2.608 -22.557 -28.141  0.00  0.00     0.099 C 
ATOM      3  C   UNL d   1      -3.430 -23.721 -28.293  0.00  0.00     0.045 A 
ATOM      4  C   UNL d   1      -3.411 -24.440 -29.503  0.00  0.00     0.023 A 
ATOM      5  C   UNL d   1      -4.241 -24.151 -27.240  0.00  0.00     0.032 A 
ATOM      6  C   UNL d   1      -4.203 -25.583 -29.667  0.00  0.00     0.012 A 
ATOM      7  C   UNL d   1      -5.022 -25.286 -27.424  0.00  0.00    -0.023 A 
ATOM      8  C   UNL d   1      -5.017 -25.994 -28.620  0.00  0.00    -0.011 A 
ATOM      9  C   UNL d   1      -5.925 -25.943 -26.453  0.00  0.00     0.209 A 
ATOM     10  C   UNL d   1      -5.934 -27.185 -28.503  0.00  0.00     0.116 A 
ATOM     11  O   UNL d   1      -6.425 -27.115 -27.128  0.00  0.00    -0.366 OA
ENDROOT
BRANCH  10  12
ATOM     12  C   UNL d   1      -5.212 -28.548 -28.644  0.00  0.00     0.050 C 
BRANCH  12  13
ATOM     13  C   UNL d   1      -3.694 -28.523 -28.420  0.00  0.00     0.034 C 
BRANCH  13  14
ATOM     14  C   UNL d   1      -3.198 -29.939 -28.085  0.00  0.00     0.271 C 
BRANCH  14  15
ATOM     15  N   UNL d   1      -3.012 -30.795 -29.268  0.00  0.00     0.080 N 
ATOM     16  C   UNL d   1      -2.332 -30.088 -30.355  0.00  0.00     0.309 C 
ATOM     17  C   UNL d   1      -2.237 -31.985 -28.900  0.00  0.00     0.309 C 
ENDBRANCH  14  15
ENDBRANCH  13  14
ENDBRANCH  12  13
ENDBRANCH  10  12
BRANCH  10  18
ATOM     18  C   UNL d   1      -7.134 -27.147 -29.471  0.00  0.00    -0.019 A 
ATOM     19  C   UNL d   1      -7.543 -25.946 -30.084  0.00  0.00     0.013 A 
ATOM     20  C   UNL d   1      -8.670 -25.900 -30.909  0.00  0.00     0.043 A 
ATOM     21  C   UNL d   1      -9.405 -27.055 -31.135  0.00  0.00     0.116 A 
ATOM     22  F   UNL d   1     -10.490 -27.008 -31.918  0.00  0.00    -0.206 F 
ATOM     23  C   UNL d   1      -9.031 -28.257 -30.553  0.00  0.00     0.043 A 
ATOM     24  C   UNL d   1      -7.904 -28.303 -29.726  0.00  0.00     0.013 A 
ENDBRANCH  10  18
TORSDOF 5
ENDMDL
MODEL 6
REMARK VINA RESULT:      -4.7     21.884     23.695
REMARK  5 active torsions:
REMARK  status: ('A' for Active; 'I' for Inactive)
REMARK    1  A    between atoms: C_12  and  C_10 
REMARK    2  A    between atoms: C_10  and  C_13 
REMARK    3  A    between atoms: C_14  and  C_12 
REMARK    4  A    between atoms: C_17  and  C_14 
REMARK    5  A    between atoms: N_20  and  C_17 
ROOT
ATOM      1  N   UNL d   1     -23.998 -10.282 -17.358  0.00  0.00    -0.191 NA
ATOM      2  C   UNL d   1     -23.936 -10.588 -18.478  0.00  0.00     0.099 C 
ATOM      3  C   UNL d   1     -23.855 -10.966 -19.857  0.00  0.00     0.045 A 
ATOM      4  C   UNL d   1     -23.204 -10.124 -20.779  0.00  0.00     0.023 A 
ATOM      5  C   UNL d   1     -24.408 -12.175 -20.288  0.00  0.00     0.032 A 
ATOM      6  C   UNL d   1     -23.110 -10.482 -22.130  0.00  0.00     0.012 A 
ATOM      7  C   UNL d   1     -24.306 -12.510 -21.633  0.00  0.00    -0.023 A 
ATOM      8  C   UNL d   1     -23.676 -11.678 -22.551  0.00  0.00    -0.011 A 
ATOM      9  C   UNL d   1     -24.781 -13.737 -22.310  0.00  0.00     0.209 A 
ATOM     10  C   UNL d   1     -23.698 -12.323 -23.913  0.00  0.00     0.116 A 
ATOM     11  O   UNL d   1     -24.355 -13.608 -23.681  0.00  0.00    -0.366 OA
ENDROOT
BRANCH  10  12
ATOM     12  C   UNL d   1     -22.291 -12.644 -24.477  0.00  0.00     0.050 C 
BRANCH  12  13
ATOM     13  C   UNL d   1     -21.764 -14.055 -24.185  0.00  0.00     0.034 C 
BRANCH  13  14
ATOM     14  C   UNL d   1     -20.388 -13.962 -23.506  0.00  0.00     0.271 C 
BRANCH  14  15
ATOM     15  N   UNL d   1     -20.408 -14.318 -22.078  0.00  0.00     0.080 N 
ATOM     16  C   UNL d   1     -20.550 -13.139 -21.222  0.00  0.00     0.309 C 
ATOM     17  C   UNL d   1     -21.513 -15.247 -21.815  0.00  0.00     0.309 C 
ENDBRANCH  14  15
ENDBRANCH  13  14
ENDBRANCH  12  13
ENDBRANCH  10  12
BRANCH  10  18
ATOM     18  C   UNL d   1     -24.496 -11.530 -24.968  0.00  0.00    -0.019 A 
ATOM     19  C   UNL d   1     -24.039 -11.411 -26.295  0.00  0.00     0.013 A 
ATOM     20  C   UNL d   1     -24.729 -10.638 -27.233  0.00  0.00     0.043 A 
ATOM     21  C   UNL d   1     -25.887  -9.973 -26.858  0.00  0.00     0.116 A 
ATOM     22  F   UNL d   1     -26.542  -9.224 -27.754  0.00  0.00    -0.206 F 
ATOM     23  C   UNL d   1     -26.371 -10.069 -25.561  0.00  0.00     0.043 A 
ATOM     24  C   UNL d   1     -25.680 -10.842 -24.623  0.00  0.00     0.013 A 
ENDBRANCH  10  18
TORSDOF 5
ENDMDL
MODEL 7
REMARK VINA RESULT:      -4.7      3.040      5.674
REMARK  5 active torsions:
REMARK  status: ('A' for Active; 'I' for Inactive)
REMARK    1  A    between atoms: C_12  and  C_10 
REMARK    2  A    between atoms: C_10  and  C_13 
REMARK    3  A    between atoms: C_14  and  C_12 
REMARK    4  A    between atoms: C_17  and  C_14 
REMARK    5  A    between atoms: N_20  and  C_17 
ROOT
ATOM      1  N   UNL d   1      -2.813 -31.387 -14.735  0.00  0.00    -0.191 NA
ATOM      2  C   UNL d   1      -3.754 -31.230 -15.401  0.00  0.00     0.099 C 
ATOM      3  C   UNL d   1      -4.911 -31.031 -16.221  0.00  0.00     0.045 A 
ATOM      4  C   UNL d   1      -6.109 -30.568 -15.644  0.00  0.00     0.023 A 
ATOM      5  C   UNL d   1      -4.852 -31.284 -17.594  0.00  0.00     0.032 A 
ATOM      6  C   UNL d   1      -7.248 -30.362 -16.432  0.00  0.00     0.012 A 
ATOM      7  C   UNL d   1      -5.994 -31.077 -18.358  0.00  0.00    -0.023 A 
ATOM      8  C   UNL d   1      -7.183 -30.632 -17.793  0.00  0.00    -0.011 A 
ATOM      9  C   UNL d   1      -6.161 -31.244 -19.818  0.00  0.00     0.209 A 
ATOM     10  C   UNL d   1      -8.224 -30.473 -18.872  0.00  0.00     0.116 A 
ATOM     11  O   UNL d   1      -7.512 -30.826 -20.099  0.00  0.00    -0.366 OA
ENDROOT
BRANCH  10  12
ATOM     12  C   UNL d   1      -8.721 -29.018 -19.055  0.00  0.00     0.050 C 
BRANCH  12  13
ATOM     13  C   UNL d   1      -7.806 -28.101 -19.877  0.00  0.00     0.034 C 
BRANCH  13  14
ATOM     14  C   UNL d   1      -7.517 -26.815 -19.086  0.00  0.00     0.271 C 
BRANCH  14  15
ATOM     15  N   UNL d   1      -7.703 -25.584 -19.870  0.00  0.00     0.080 N 
ATOM     16  C   UNL d   1      -7.028 -25.652 -21.167  0.00  0.00     0.309 C 
ATOM     17  C   UNL d   1      -9.135 -25.342 -20.078  0.00  0.00     0.309 C 
ENDBRANCH  14  15
ENDBRANCH  13  14
ENDBRANCH  12  13
ENDBRANCH  10  12
BRANCH  10  18
ATOM     18  C   UNL d   1      -9.441 -31.406 -18.708  0.00  0.00    -0.019 A 
ATOM     19  C   UNL d   1     -10.494 -31.407 -19.643  0.00  0.00     0.013 A 
ATOM     20  C   UNL d   1     -11.627 -32.205 -19.459  0.00  0.00     0.043 A 
ATOM     21  C   UNL d   1     -11.724 -33.014 -18.336  0.00  0.00     0.116 A 
ATOM     22  F   UNL d   1     -12.814 -33.770 -18.155  0.00  0.00    -0.206 F 
ATOM     23  C   UNL d   1     -10.705 -33.042 -17.394  0.00  0.00     0.043 A 
ATOM     24  C   UNL d   1      -9.572 -32.244 -17.578  0.00  0.00     0.013 A 
ENDBRANCH  10  18
TORSDOF 5
ENDMDL
MODEL 8
REMARK VINA RESULT:      -4.4     14.274     15.666
REMARK  5 active torsions:
REMARK  status: ('A' for Active; 'I' for Inactive)
REMARK    1  A    between atoms: C_12  and  C_10 
REMARK    2  A    between atoms: C_10  and  C_13 
REMARK    3  A    between atoms: C_14  and  C_12 
REMARK    4  A    between atoms: C_17  and  C_14 
REMARK    5  A    between atoms: N_20  and  C_17 
ROOT
ATOM      1  N   UNL d   1       0.079 -29.455 -32.892  0.00  0.00    -0.191 NA
ATOM      2  C   UNL d   1      -0.025 -30.202 -32.006  0.00  0.00     0.099 C 
ATOM      3  C   UNL d   1      -0.150 -31.119 -30.913  0.00  0.00     0.045 A 
ATOM      4  C   UNL d   1       0.845 -32.091 -30.695  0.00  0.00     0.023 A 
ATOM      5  C   UNL d   1      -1.250 -31.044 -30.054  0.00  0.00     0.032 A 
ATOM      6  C   UNL d   1       0.742 -32.991 -29.627  0.00  0.00     0.012 A 
ATOM      7  C   UNL d   1      -1.335 -31.948 -29.003  0.00  0.00    -0.023 A 
ATOM      8  C   UNL d   1      -0.363 -32.918 -28.789  0.00  0.00    -0.011 A 
ATOM      9  C   UNL d   1      -2.378 -32.041 -27.957  0.00  0.00     0.209 A 
ATOM     10  C   UNL d   1      -0.714 -33.721 -27.562  0.00  0.00     0.116 A 
ATOM     11  O   UNL d   1      -1.944 -33.097 -27.077  0.00  0.00    -0.366 OA
ENDROOT
BRANCH  10  12
ATOM     12  C   UNL d   1       0.321 -33.602 -26.416  0.00  0.00     0.050 C 
BRANCH  12  13
ATOM     13  C   UNL d   1      -0.036 -34.337 -25.118  0.00  0.00     0.034 C 
BRANCH  13  14
ATOM     14  C   UNL d   1       1.190 -35.115 -24.612  0.00  0.00     0.271 C 
BRANCH  14  15
ATOM     15  N   UNL d   1       1.137 -35.433 -23.176  0.00  0.00     0.080 N 
ATOM     16  C   UNL d   1      -0.104 -34.965 -22.557  0.00  0.00     0.309 C 
ATOM     17  C   UNL d   1       1.260 -36.882 -22.985  0.00  0.00     0.309 C 
ENDBRANCH  14  15
ENDBRANCH  13  14
ENDBRANCH  12  13
ENDBRANCH  10  12
BRANCH  10  18
ATOM     18  C   UNL d   1      -0.982 -35.213 -27.848  0.00  0.00    -0.019 A 
ATOM     19  C   UNL d   1       0.047 -36.071 -28.280  0.00  0.00     0.013 A 
ATOM     20  C   UNL d   1      -0.210 -37.407 -28.602  0.00  0.00     0.043 A 
ATOM     21  C   UNL d   1      -1.500 -37.905 -28.494  0.00  0.00     0.116 A 
ATOM     22  F   UNL d   1      -1.748 -39.182 -28.812  0.00  0.00    -0.206 F 
ATOM     23  C   UNL d   1      -2.540 -37.091 -28.067  0.00  0.00     0.043 A 
ATOM     24  C   UNL d   1      -2.282 -35.754 -27.746  0.00  0.00     0.013 A 
ENDBRANCH  10  18
TORSDOF 5
ENDMDL
MODEL 9
REMARK VINA RESULT:      -4.4     19.203     21.003
REMARK  5 active torsions:
REMARK  status: ('A' for Active; 'I' for Inactive)
REMARK    1  A    between atoms: C_12  and  C_10 
REMARK    2  A    between atoms: C_10  and  C_13 
REMARK    3  A    between atoms: C_14  and  C_12 
REMARK    4  A    between atoms: C_17  and  C_14 
REMARK    5  A    between atoms: N_20  and  C_17 
ROOT
ATOM      1  N   UNL d   1     -20.361 -25.769   5.409  0.00  0.00    -0.191 NA
ATOM      2  C   UNL d   1     -20.656 -25.791   4.284  0.00  0.00     0.099 C 
ATOM      3  C   UNL d   1     -21.020 -25.814   2.898  0.00  0.00     0.045 A 
ATOM      4  C   UNL d   1     -22.375 -25.726   2.526  0.00  0.00     0.023 A 
ATOM      5  C   UNL d   1     -20.032 -25.909   1.914  0.00  0.00     0.032 A 
ATOM      6  C   UNL d   1     -22.747 -25.740   1.177  0.00  0.00     0.012 A 
ATOM      7  C   UNL d   1     -20.423 -25.924   0.581  0.00  0.00    -0.023 A 
ATOM      8  C   UNL d   1     -21.759 -25.851   0.207  0.00  0.00    -0.011 A 
ATOM      9  C   UNL d   1     -19.566 -25.986  -0.624  0.00  0.00     0.209 A 
ATOM     10  C   UNL d   1     -21.862 -25.857  -1.297  0.00  0.00     0.116 A 
ATOM     11  O   UNL d   1     -20.471 -25.898  -1.743  0.00  0.00    -0.366 OA
ENDROOT
BRANCH  10  12
ATOM     12  C   UNL d   1     -22.476 -24.564  -1.889  0.00  0.00     0.050 C 
BRANCH  12  13
ATOM     13  C   UNL d   1     -21.547 -23.343  -1.924  0.00  0.00     0.034 C 
BRANCH  13  14
ATOM     14  C   UNL d   1     -22.042 -22.289  -0.920  0.00  0.00     0.271 C 
BRANCH  14  15
ATOM     15  N   UNL d   1     -21.008 -21.843   0.027  0.00  0.00     0.080 N 
ATOM     16  C   UNL d   1     -21.284 -22.294   1.392  0.00  0.00     0.309 C 
ATOM     17  C   UNL d   1     -19.697 -22.349  -0.398  0.00  0.00     0.309 C 
ENDBRANCH  14  15
ENDBRANCH  13  14
ENDBRANCH  12  13
ENDBRANCH  10  12
BRANCH  10  18
ATOM     18  C   UNL d   1     -22.612 -27.079  -1.867  0.00  0.00    -0.019 A 
ATOM     19  C   UNL d   1     -22.053 -28.371  -1.814  0.00  0.00     0.013 A 
ATOM     20  C   UNL d   1     -22.704 -29.466  -2.390  0.00  0.00     0.043 A 
ATOM     21  C   UNL d   1     -23.924 -29.286  -3.025  0.00  0.00     0.116 A 
ATOM     22  F   UNL d   1     -24.541 -30.334  -3.585  0.00  0.00    -0.206 F 
ATOM     23  C   UNL d   1     -24.507 -28.029  -3.094  0.00  0.00     0.043 A 
ATOM     24  C   UNL d   1     -23.856 -26.933  -2.519  0.00  0.00     0.013 A 
ENDBRANCH  10  18
TORSDOF 5
ENDMDL
