MODEL 1
REMARK VINA RESULT:      -2.9      0.000      0.000
REMARK  2 active torsions:
REMARK  status: ('A' for Active; 'I' for Inactive)
REMARK    1  A    between atoms: C_2  and  O_1 
REMARK    2  A    between atoms: C_3  and  C_2 
ROOT
ATOM      1  C   UNL d   1      31.108  20.946 -15.764  0.00  0.00     0.213 C 
ATOM      2  O   UNL d   1      30.052  20.392 -15.988  0.00  0.00    -0.644 OA
ENDROOT
BRANCH   1   3
ATOM      3  C   UNL d   1      31.406  22.382 -16.180  0.00  0.00     0.218 C 
ATOM      4  C   UNL d   1      30.609  22.936 -17.318  0.00  0.00     0.103 C 
ATOM      5  O   UNL d   1      32.276  22.986 -15.558  0.00  0.00    -0.286 OA
ENDBRANCH   1   3
BRANCH   1   6
ATOM      6  O   UNL d   1      32.167  20.408 -15.131  0.00  0.00    -0.771 OA
ATOM      7  H   UNL d   1      32.566  19.710 -15.704  0.00  0.00     0.168 HD
ENDBRANCH   1   6
TORSDOF 2
ENDMDL
MODEL 2
REMARK VINA RESULT:      -2.7     25.759     26.327
REMARK  2 active torsions:
REMARK  status: ('A' for Active; 'I' for Inactive)
REMARK    1  A    between atoms: C_2  and  O_1 
REMARK    2  A    between atoms: C_3  and  C_2 
ROOT
ATOM      1  C   UNL d   1      32.690  32.986   6.892  0.00  0.00     0.213 C 
ATOM      2  O   UNL d   1      32.870  33.051   5.694  0.00  0.00    -0.644 OA
ENDROOT
BRANCH   1   3
ATOM      3  C   UNL d   1      32.921  34.157   7.840  0.00  0.00     0.218 C 
ATOM      4  C   UNL d   1      33.719  35.307   7.312  0.00  0.00     0.103 C 
ATOM      5  O   UNL d   1      32.443  34.081   8.968  0.00  0.00    -0.286 OA
ENDBRANCH   1   3
BRANCH   1   6
ATOM      6  O   UNL d   1      32.268  31.903   7.574  0.00  0.00    -0.771 OA
ATOM      7  H   UNL d   1      31.881  31.253   6.939  0.00  0.00     0.168 HD
ENDBRANCH   1   6
TORSDOF 2
ENDMDL
MODEL 3
REMARK VINA RESULT:      -2.5     24.970     25.639
REMARK  2 active torsions:
REMARK  status: ('A' for Active; 'I' for Inactive)
REMARK    1  A    between atoms: C_2  and  O_1 
REMARK    2  A    between atoms: C_3  and  C_2 
ROOT
ATOM      1  C   UNL d   1      33.636  34.232   5.517  0.00  0.00     0.213 C 
ATOM      2  O   UNL d   1      33.851  33.304   6.268  0.00  0.00    -0.644 OA
ENDROOT
BRANCH   1   3
ATOM      3  C   UNL d   1      33.928  35.685   5.875  0.00  0.00     0.218 C 
ATOM      4  C   UNL d   1      33.931  36.036   7.329  0.00  0.00     0.103 C 
ATOM      5  O   UNL d   1      34.137  36.468   4.952  0.00  0.00    -0.286 OA
ENDBRANCH   1   3
BRANCH   1   6
ATOM      6  O   UNL d   1      33.121  34.145   4.276  0.00  0.00    -0.771 OA
ATOM      7  H   UNL d   1      32.160  34.370   4.309  0.00  0.00     0.168 HD
ENDBRANCH   1   6
TORSDOF 2
ENDMDL
MODEL 4
REMARK VINA RESULT:      -2.4     34.331     34.950
REMARK  2 active torsions:
REMARK  status: ('A' for Active; 'I' for Inactive)
REMARK    1  A    between atoms: C_2  and  O_1 
REMARK    2  A    between atoms: C_3  and  C_2 
ROOT
ATOM      1  C   UNL d   1      31.076  38.772  14.918  0.00  0.00     0.213 C 
ATOM      2  O   UNL d   1      30.417  39.663  14.426  0.00  0.00    -0.644 OA
ENDROOT
BRANCH   1   3
ATOM      3  C   UNL d   1      32.212  38.066  14.185  0.00  0.00     0.218 C 
ATOM      4  C   UNL d   1      33.378  37.623  15.011  0.00  0.00     0.103 C 
ATOM      5  O   UNL d   1      32.097  37.910  12.972  0.00  0.00    -0.286 OA
ENDBRANCH   1   3
BRANCH   1   6
ATOM      6  O   UNL d   1      30.928  38.265  16.157  0.00  0.00    -0.771 OA
ATOM      7  H   UNL d   1      30.853  37.282  16.096  0.00  0.00     0.168 HD
ENDBRANCH   1   6
TORSDOF 2
ENDMDL
MODEL 5
REMARK VINA RESULT:      -2.3     34.245     34.783
REMARK  2 active torsions:
REMARK  status: ('A' for Active; 'I' for Inactive)
REMARK    1  A    between atoms: C_2  and  O_1 
REMARK    2  A    between atoms: C_3  and  C_2 
ROOT
ATOM      1  C   UNL d   1      31.717  37.958  14.569  0.00  0.00     0.213 C 
ATOM      2  O   UNL d   1      31.623  39.052  14.055  0.00  0.00    -0.644 OA
ENDROOT
BRANCH   1   3
ATOM      3  C   UNL d   1      33.051  37.315  14.935  0.00  0.00     0.218 C 
ATOM      4  C   UNL d   1      33.314  37.086  16.390  0.00  0.00     0.103 C 
ATOM      5  O   UNL d   1      33.817  37.030  14.019  0.00  0.00    -0.286 OA
ENDBRANCH   1   3
BRANCH   1   6
ATOM      6  O   UNL d   1      30.695  37.144  14.898  0.00  0.00    -0.771 OA
ATOM      7  H   UNL d   1      30.859  36.249  14.514  0.00  0.00     0.168 HD
ENDBRANCH   1   6
TORSDOF 2
ENDMDL
MODEL 6
REMARK VINA RESULT:      -2.3      7.448      8.217
REMARK  2 active torsions:
REMARK  status: ('A' for Active; 'I' for Inactive)
REMARK    1  A    between atoms: C_2  and  O_1 
REMARK    2  A    between atoms: C_3  and  C_2 
ROOT
ATOM      1  C   UNL d   1      29.607  20.152  -9.251  0.00  0.00     0.213 C 
ATOM      2  O   UNL d   1      29.916  19.411 -10.160  0.00  0.00    -0.644 OA
ENDROOT
BRANCH   1   3
ATOM      3  C   UNL d   1      28.582  19.787  -8.183  0.00  0.00     0.218 C 
ATOM      4  C   UNL d   1      28.372  20.778  -7.082  0.00  0.00     0.103 C 
ATOM      5  O   UNL d   1      28.002  18.711  -8.294  0.00  0.00    -0.286 OA
ENDBRANCH   1   3
BRANCH   1   6
ATOM      6  O   UNL d   1      30.099  21.387  -9.031  0.00  0.00    -0.771 OA
ATOM      7  H   UNL d   1      30.755  21.346  -8.295  0.00  0.00     0.168 HD
ENDBRANCH   1   6
TORSDOF 2
ENDMDL
MODEL 7
REMARK VINA RESULT:      -2.2     14.868     15.555
REMARK  2 active torsions:
REMARK  status: ('A' for Active; 'I' for Inactive)
REMARK    1  A    between atoms: C_2  and  O_1 
REMARK    2  A    between atoms: C_3  and  C_2 
ROOT
ATOM      1  C   UNL d   1      37.560  28.826 -28.159  0.00  0.00     0.213 C 
ATOM      2  O   UNL d   1      37.581  30.018 -27.931  0.00  0.00    -0.644 OA
ENDROOT
BRANCH   1   3
ATOM      3  C   UNL d   1      36.420  28.133 -28.896  0.00  0.00     0.218 C 
ATOM      4  C   UNL d   1      36.490  28.120 -30.390  0.00  0.00     0.103 C 
ATOM      5  O   UNL d   1      35.523  27.636 -28.220  0.00  0.00    -0.286 OA
ENDBRANCH   1   3
BRANCH   1   6
ATOM      6  O   UNL d   1      38.509  27.935 -27.812  0.00  0.00    -0.771 OA
ATOM      7  H   UNL d   1      38.723  27.372 -28.594  0.00  0.00     0.168 HD
ENDBRANCH   1   6
TORSDOF 2
ENDMDL
MODEL 8
REMARK VINA RESULT:      -2.2     23.285     23.951
REMARK  2 active torsions:
REMARK  status: ('A' for Active; 'I' for Inactive)
REMARK    1  A    between atoms: C_2  and  O_1 
REMARK    2  A    between atoms: C_3  and  C_2 
ROOT
ATOM      1  C   UNL d   1      31.666  33.816   4.367  0.00  0.00     0.213 C 
ATOM      2  O   UNL d   1      30.822  33.721   5.232  0.00  0.00    -0.644 OA
ENDROOT
BRANCH   1   3
ATOM      3  C   UNL d   1      33.164  33.766   4.647  0.00  0.00     0.218 C 
ATOM      4  C   UNL d   1      33.579  33.461   6.052  0.00  0.00     0.103 C 
ATOM      5  O   UNL d   1      33.927  33.981   3.709  0.00  0.00    -0.286 OA
ENDBRANCH   1   3
BRANCH   1   6
ATOM      6  O   UNL d   1      31.438  33.976   3.049  0.00  0.00    -0.771 OA
ATOM      7  H   UNL d   1      31.279  33.092   2.639  0.00  0.00     0.168 HD
ENDBRANCH   1   6
TORSDOF 2
ENDMDL
MODEL 9
REMARK VINA RESULT:      -1.8      8.287      9.002
REMARK  2 active torsions:
REMARK  status: ('A' for Active; 'I' for Inactive)
REMARK    1  A    between atoms: C_2  and  O_1 
REMARK    2  A    between atoms: C_3  and  C_2 
ROOT
ATOM      1  C   UNL d   1      28.215  20.797  -7.412  0.00  0.00     0.213 C 
ATOM      2  O   UNL d   1      28.757  21.202  -6.405  0.00  0.00    -0.644 OA
ENDROOT
BRANCH   1   3
ATOM      3  C   UNL d   1      28.842  19.770  -8.348  0.00  0.00     0.218 C 
ATOM      4  C   UNL d   1      29.911  20.261  -9.272  0.00  0.00     0.103 C 
ATOM      5  O   UNL d   1      28.432  18.614  -8.283  0.00  0.00    -0.286 OA
ENDBRANCH   1   3
BRANCH   1   6
ATOM      6  O   UNL d   1      27.003  21.171  -7.867  0.00  0.00    -0.771 OA
ATOM      7  H   UNL d   1      27.016  22.139  -8.061  0.00  0.00     0.168 HD
ENDBRANCH   1   6
TORSDOF 2
ENDMDL
