MODEL 1
REMARK VINA RESULT:      -2.6      0.000      0.000
REMARK  2 active torsions:
REMARK  status: ('A' for Active; 'I' for Inactive)
REMARK    1  A    between atoms: C_2  and  O_1 
REMARK    2  A    between atoms: C_3  and  C_2 
ROOT
ATOM      1  C   UNL d   1      28.237  37.557  -6.240  0.00  0.00     0.213 C 
ATOM      2  O   UNL d   1      27.802  37.571  -5.107  0.00  0.00    -0.644 OA
ENDROOT
BRANCH   1   3
ATOM      3  C   UNL d   1      28.364  38.807  -7.105  0.00  0.00     0.218 C 
ATOM      4  C   UNL d   1      28.183  40.125  -6.419  0.00  0.00     0.103 C 
ATOM      5  O   UNL d   1      28.603  38.651  -8.299  0.00  0.00    -0.286 OA
ENDBRANCH   1   3
BRANCH   1   6
ATOM      6  O   UNL d   1      28.671  36.473  -6.911  0.00  0.00    -0.771 OA
ATOM      7  H   UNL d   1      29.644  36.380  -6.778  0.00  0.00     0.168 HD
ENDBRANCH   1   6
TORSDOF 2
ENDMDL
MODEL 2
REMARK VINA RESULT:      -2.5     22.763     23.623
REMARK  2 active torsions:
REMARK  status: ('A' for Active; 'I' for Inactive)
REMARK    1  A    between atoms: C_2  and  O_1 
REMARK    2  A    between atoms: C_3  and  C_2 
ROOT
ATOM      1  C   UNL d   1      24.807  38.023  17.020  0.00  0.00     0.213 C 
ATOM      2  O   UNL d   1      23.850  38.684  16.676  0.00  0.00    -0.644 OA
ENDROOT
BRANCH   1   3
ATOM      3  C   UNL d   1      25.466  36.975  16.129  0.00  0.00     0.218 C 
ATOM      4  C   UNL d   1      24.601  35.850  15.656  0.00  0.00     0.103 C 
ATOM      5  O   UNL d   1      26.655  37.122  15.861  0.00  0.00    -0.286 OA
ENDBRANCH   1   3
BRANCH   1   6
ATOM      6  O   UNL d   1      25.436  38.094  18.209  0.00  0.00    -0.771 OA
ATOM      7  H   UNL d   1      24.892  37.632  18.890  0.00  0.00     0.168 HD
ENDBRANCH   1   6
TORSDOF 2
ENDMDL
MODEL 3
REMARK VINA RESULT:      -2.4     21.822     22.537
REMARK  2 active torsions:
REMARK  status: ('A' for Active; 'I' for Inactive)
REMARK    1  A    between atoms: C_2  and  O_1 
REMARK    2  A    between atoms: C_3  and  C_2 
ROOT
ATOM      1  C   UNL d   1      32.077  34.347  15.547  0.00  0.00     0.213 C 
ATOM      2  O   UNL d   1      32.091  34.242  16.756  0.00  0.00    -0.644 OA
ENDROOT
BRANCH   1   3
ATOM      3  C   UNL d   1      31.261  33.438  14.635  0.00  0.00     0.218 C 
ATOM      4  C   UNL d   1      31.880  32.129  14.256  0.00  0.00     0.103 C 
ATOM      5  O   UNL d   1      30.157  33.836  14.272  0.00  0.00    -0.286 OA
ENDBRANCH   1   3
BRANCH   1   6
ATOM      6  O   UNL d   1      32.756  35.256  14.822  0.00  0.00    -0.771 OA
ATOM      7  H   UNL d   1      32.893  36.068  15.367  0.00  0.00     0.168 HD
ENDBRANCH   1   6
TORSDOF 2
ENDMDL
MODEL 4
REMARK VINA RESULT:      -2.2     21.491     22.567
REMARK  2 active torsions:
REMARK  status: ('A' for Active; 'I' for Inactive)
REMARK    1  A    between atoms: C_2  and  O_1 
REMARK    2  A    between atoms: C_3  and  C_2 
ROOT
ATOM      1  C   UNL d   1      32.638  33.387  14.174  0.00  0.00     0.213 C 
ATOM      2  O   UNL d   1      32.354  32.243  13.888  0.00  0.00    -0.644 OA
ENDROOT
BRANCH   1   3
ATOM      3  C   UNL d   1      32.442  33.977  15.566  0.00  0.00     0.218 C 
ATOM      4  C   UNL d   1      33.127  33.280  16.699  0.00  0.00     0.103 C 
ATOM      5  O   UNL d   1      31.738  34.978  15.667  0.00  0.00    -0.286 OA
ENDBRANCH   1   3
BRANCH   1   6
ATOM      6  O   UNL d   1      33.160  34.307  13.340  0.00  0.00    -0.771 OA
ATOM      7  H   UNL d   1      34.104  34.462  13.582  0.00  0.00     0.168 HD
ENDBRANCH   1   6
TORSDOF 2
ENDMDL
MODEL 5
REMARK VINA RESULT:      -2.2      8.444      9.054
REMARK  2 active torsions:
REMARK  status: ('A' for Active; 'I' for Inactive)
REMARK    1  A    between atoms: C_2  and  O_1 
REMARK    2  A    between atoms: C_3  and  C_2 
ROOT
ATOM      1  C   UNL d   1      34.938  33.702  -9.832  0.00  0.00     0.213 C 
ATOM      2  O   UNL d   1      35.754  33.328  -9.017  0.00  0.00    -0.644 OA
ENDROOT
BRANCH   1   3
ATOM      3  C   UNL d   1      34.025  32.752 -10.601  0.00  0.00     0.218 C 
ATOM      4  C   UNL d   1      34.536  31.366 -10.835  0.00  0.00     0.103 C 
ATOM      5  O   UNL d   1      32.939  33.185 -10.975  0.00  0.00    -0.286 OA
ENDBRANCH   1   3
BRANCH   1   6
ATOM      6  O   UNL d   1      34.700  34.978 -10.191  0.00  0.00    -0.771 OA
ATOM      7  H   UNL d   1      33.756  35.196 -10.001  0.00  0.00     0.168 HD
ENDBRANCH   1   6
TORSDOF 2
ENDMDL
MODEL 6
REMARK VINA RESULT:      -2.2     22.245     23.314
REMARK  2 active torsions:
REMARK  status: ('A' for Active; 'I' for Inactive)
REMARK    1  A    between atoms: C_2  and  O_1 
REMARK    2  A    between atoms: C_3  and  C_2 
ROOT
ATOM      1  C   UNL d   1      32.357  34.325  15.262  0.00  0.00     0.213 C 
ATOM      2  O   UNL d   1      31.475  35.025  15.711  0.00  0.00    -0.644 OA
ENDROOT
BRANCH   1   3
ATOM      3  C   UNL d   1      32.977  33.161  16.029  0.00  0.00     0.218 C 
ATOM      4  C   UNL d   1      32.880  33.207  17.521  0.00  0.00     0.103 C 
ATOM      5  O   UNL d   1      33.512  32.269  15.376  0.00  0.00    -0.286 OA
ENDBRANCH   1   3
BRANCH   1   6
ATOM      6  O   UNL d   1      32.928  34.446  14.048  0.00  0.00    -0.771 OA
ATOM      7  H   UNL d   1      32.275  34.845  13.424  0.00  0.00     0.168 HD
ENDBRANCH   1   6
TORSDOF 2
ENDMDL
MODEL 7
REMARK VINA RESULT:      -2.2      9.723     10.280
REMARK  2 active torsions:
REMARK  status: ('A' for Active; 'I' for Inactive)
REMARK    1  A    between atoms: C_2  and  O_1 
REMARK    2  A    between atoms: C_3  and  C_2 
ROOT
ATOM      1  C   UNL d   1      25.947  37.873 -16.280  0.00  0.00     0.213 C 
ATOM      2  O   UNL d   1      26.101  36.773 -15.792  0.00  0.00    -0.644 OA
ENDROOT
BRANCH   1   3
ATOM      3  C   UNL d   1      24.651  38.668 -16.165  0.00  0.00     0.218 C 
ATOM      4  C   UNL d   1      23.909  38.939 -17.435  0.00  0.00     0.103 C 
ATOM      5  O   UNL d   1      24.303  39.032 -15.045  0.00  0.00    -0.286 OA
ENDBRANCH   1   3
BRANCH   1   6
ATOM      6  O   UNL d   1      26.862  38.563 -16.986  0.00  0.00    -0.771 OA
ATOM      7  H   UNL d   1      27.765  38.329 -16.661  0.00  0.00     0.168 HD
ENDBRANCH   1   6
TORSDOF 2
ENDMDL
MODEL 8
REMARK VINA RESULT:      -2.1     28.034     28.581
REMARK  2 active torsions:
REMARK  status: ('A' for Active; 'I' for Inactive)
REMARK    1  A    between atoms: C_2  and  O_1 
REMARK    2  A    between atoms: C_3  and  C_2 
ROOT
ATOM      1  C   UNL d   1      37.479  18.395  11.279  0.00  0.00     0.213 C 
ATOM      2  O   UNL d   1      36.880  17.428  10.859  0.00  0.00    -0.644 OA
ENDROOT
BRANCH   1   3
ATOM      3  C   UNL d   1      38.998  18.521  11.244  0.00  0.00     0.218 C 
ATOM      4  C   UNL d   1      39.780  17.249  11.146  0.00  0.00     0.103 C 
ATOM      5  O   UNL d   1      39.478  19.650  11.299  0.00  0.00    -0.286 OA
ENDBRANCH   1   3
BRANCH   1   6
ATOM      6  O   UNL d   1      36.927  19.493  11.832  0.00  0.00    -0.771 OA
ATOM      7  H   UNL d   1      37.539  20.258  11.710  0.00  0.00     0.168 HD
ENDBRANCH   1   6
TORSDOF 2
ENDMDL
MODEL 9
REMARK VINA RESULT:      -2.1      8.443      9.125
REMARK  2 active torsions:
REMARK  status: ('A' for Active; 'I' for Inactive)
REMARK    1  A    between atoms: C_2  and  O_1 
REMARK    2  A    between atoms: C_3  and  C_2 
ROOT
ATOM      1  C   UNL d   1      33.635  33.041 -11.483  0.00  0.00     0.213 C 
ATOM      2  O   UNL d   1      34.076  32.845 -12.595  0.00  0.00    -0.644 OA
ENDROOT
BRANCH   1   3
ATOM      3  C   UNL d   1      34.516  33.200 -10.248  0.00  0.00     0.218 C 
ATOM      4  C   UNL d   1      35.121  31.954  -9.684  0.00  0.00     0.103 C 
ATOM      5  O   UNL d   1      34.670  34.333  -9.800  0.00  0.00    -0.286 OA
ENDBRANCH   1   3
BRANCH   1   6
ATOM      6  O   UNL d   1      32.335  33.151 -11.151  0.00  0.00    -0.771 OA
ATOM      7  H   UNL d   1      31.900  32.270 -11.253  0.00  0.00     0.168 HD
ENDBRANCH   1   6
TORSDOF 2
ENDMDL
