MODEL 1
REMARK VINA RESULT:      -3.7      0.000      0.000
REMARK  2 active torsions:
REMARK  status: ('A' for Active; 'I' for Inactive)
REMARK    1  A    between atoms: C_2  and  O_1 
REMARK    2  A    between atoms: C_3  and  C_2 
ROOT
ATOM      1  C   UNL d   1     -10.115  32.464   6.093  0.00  0.00     0.213 C 
ATOM      2  O   UNL d   1      -9.530  32.771   7.110  0.00  0.00    -0.644 OA
ENDROOT
BRANCH   1   3
ATOM      3  C   UNL d   1      -9.419  31.874   4.871  0.00  0.00     0.218 C 
ATOM      4  C   UNL d   1      -8.633  30.618   5.081  0.00  0.00     0.103 C 
ATOM      5  O   UNL d   1      -9.547  32.465   3.802  0.00  0.00    -0.286 OA
ENDBRANCH   1   3
BRANCH   1   6
ATOM      6  O   UNL d   1     -11.438  32.584   5.870  0.00  0.00    -0.771 OA
ATOM      7  H   UNL d   1     -11.585  32.832   4.926  0.00  0.00     0.168 HD
ENDBRANCH   1   6
TORSDOF 2
ENDMDL
MODEL 2
REMARK VINA RESULT:      -3.7      1.115      2.563
REMARK  2 active torsions:
REMARK  status: ('A' for Active; 'I' for Inactive)
REMARK    1  A    between atoms: C_2  and  O_1 
REMARK    2  A    between atoms: C_3  and  C_2 
ROOT
ATOM      1  C   UNL d   1      -9.121  32.265   4.921  0.00  0.00     0.213 C 
ATOM      2  O   UNL d   1      -8.123  31.577   4.959  0.00  0.00    -0.644 OA
ENDROOT
BRANCH   1   3
ATOM      3  C   UNL d   1      -9.961  32.594   6.150  0.00  0.00     0.218 C 
ATOM      4  C   UNL d   1      -9.220  33.000   7.385  0.00  0.00     0.103 C 
ATOM      5  O   UNL d   1     -11.181  32.504   6.048  0.00  0.00    -0.286 OA
ENDBRANCH   1   3
BRANCH   1   6
ATOM      6  O   UNL d   1      -9.647  32.841   3.823  0.00  0.00    -0.771 OA
ATOM      7  H   UNL d   1      -9.184  32.494   3.023  0.00  0.00     0.168 HD
ENDBRANCH   1   6
TORSDOF 2
ENDMDL
MODEL 3
REMARK VINA RESULT:      -3.5      8.488      9.206
REMARK  2 active torsions:
REMARK  status: ('A' for Active; 'I' for Inactive)
REMARK    1  A    between atoms: C_2  and  O_1 
REMARK    2  A    between atoms: C_3  and  C_2 
ROOT
ATOM      1  C   UNL d   1      -7.485  37.292  -1.680  0.00  0.00     0.213 C 
ATOM      2  O   UNL d   1      -8.018  36.231  -1.923  0.00  0.00    -0.644 OA
ENDROOT
BRANCH   1   3
ATOM      3  C   UNL d   1      -6.501  37.494  -0.532  0.00  0.00     0.218 C 
ATOM      4  C   UNL d   1      -7.071  37.947   0.775  0.00  0.00     0.103 C 
ATOM      5  O   UNL d   1      -5.314  37.274  -0.753  0.00  0.00    -0.286 OA
ENDBRANCH   1   3
BRANCH   1   6
ATOM      6  O   UNL d   1      -7.660  38.443  -2.358  0.00  0.00    -0.771 OA
ATOM      7  H   UNL d   1      -6.886  38.587  -2.954  0.00  0.00     0.168 HD
ENDBRANCH   1   6
TORSDOF 2
ENDMDL
MODEL 4
REMARK VINA RESULT:      -3.4      6.987      7.717
REMARK  2 active torsions:
REMARK  status: ('A' for Active; 'I' for Inactive)
REMARK    1  A    between atoms: C_2  and  O_1 
REMARK    2  A    between atoms: C_3  and  C_2 
ROOT
ATOM      1  C   UNL d   1      -7.396  37.070   1.293  0.00  0.00     0.213 C 
ATOM      2  O   UNL d   1      -7.978  36.010   1.389  0.00  0.00    -0.644 OA
ENDROOT
BRANCH   1   3
ATOM      3  C   UNL d   1      -6.591  37.477   0.064  0.00  0.00     0.218 C 
ATOM      4  C   UNL d   1      -5.170  37.012   0.003  0.00  0.00     0.103 C 
ATOM      5  O   UNL d   1      -7.156  38.156  -0.788  0.00  0.00    -0.286 OA
ENDBRANCH   1   3
BRANCH   1   6
ATOM      6  O   UNL d   1      -7.360  38.043   2.224  0.00  0.00    -0.771 OA
ATOM      7  H   UNL d   1      -8.266  38.420   2.331  0.00  0.00     0.168 HD
ENDBRANCH   1   6
TORSDOF 2
ENDMDL
MODEL 5
REMARK VINA RESULT:      -3.4      2.523      2.998
REMARK  2 active torsions:
REMARK  status: ('A' for Active; 'I' for Inactive)
REMARK    1  A    between atoms: C_2  and  O_1 
REMARK    2  A    between atoms: C_3  and  C_2 
ROOT
ATOM      1  C   UNL d   1      -8.711  32.899   3.067  0.00  0.00     0.213 C 
ATOM      2  O   UNL d   1      -7.858  33.461   2.413  0.00  0.00    -0.644 OA
ENDROOT
BRANCH   1   3
ATOM      3  C   UNL d   1      -8.596  31.451   3.529  0.00  0.00     0.218 C 
ATOM      4  C   UNL d   1      -7.491  31.132   4.486  0.00  0.00     0.103 C 
ATOM      5  O   UNL d   1      -9.412  30.645   3.088  0.00  0.00    -0.286 OA
ENDBRANCH   1   3
BRANCH   1   6
ATOM      6  O   UNL d   1      -9.872  33.438   3.486  0.00  0.00    -0.771 OA
ATOM      7  H   UNL d   1     -10.621  32.993   3.021  0.00  0.00     0.168 HD
ENDBRANCH   1   6
TORSDOF 2
ENDMDL
MODEL 6
REMARK VINA RESULT:      -3.4      7.222      7.894
REMARK  2 active torsions:
REMARK  status: ('A' for Active; 'I' for Inactive)
REMARK    1  A    between atoms: C_2  and  O_1 
REMARK    2  A    between atoms: C_3  and  C_2 
ROOT
ATOM      1  C   UNL d   1      -6.948  37.792   0.894  0.00  0.00     0.213 C 
ATOM      2  O   UNL d   1      -7.334  38.370  -0.100  0.00  0.00    -0.644 OA
ENDROOT
BRANCH   1   3
ATOM      3  C   UNL d   1      -5.887  36.697   0.869  0.00  0.00     0.218 C 
ATOM      4  C   UNL d   1      -4.708  36.919  -0.025  0.00  0.00     0.103 C 
ATOM      5  O   UNL d   1      -6.069  35.711   1.577  0.00  0.00    -0.286 OA
ENDBRANCH   1   3
BRANCH   1   6
ATOM      6  O   UNL d   1      -7.374  38.007   2.153  0.00  0.00    -0.771 OA
ATOM      7  H   UNL d   1      -7.118  37.238   2.716  0.00  0.00     0.168 HD
ENDBRANCH   1   6
TORSDOF 2
ENDMDL
MODEL 7
REMARK VINA RESULT:      -3.1     10.086     10.657
REMARK  2 active torsions:
REMARK  status: ('A' for Active; 'I' for Inactive)
REMARK    1  A    between atoms: C_2  and  O_1 
REMARK    2  A    between atoms: C_3  and  C_2 
ROOT
ATOM      1  C   UNL d   1     -18.456  28.283   2.517  0.00  0.00     0.213 C 
ATOM      2  O   UNL d   1     -18.083  27.130   2.560  0.00  0.00    -0.644 OA
ENDROOT
BRANCH   1   3
ATOM      3  C   UNL d   1     -19.399  28.820   1.445  0.00  0.00     0.218 C 
ATOM      4  C   UNL d   1     -20.754  29.264   1.898  0.00  0.00     0.103 C 
ATOM      5  O   UNL d   1     -18.987  28.852   0.289  0.00  0.00    -0.286 OA
ENDBRANCH   1   3
BRANCH   1   6
ATOM      6  O   UNL d   1     -18.118  29.260   3.380  0.00  0.00    -0.771 OA
ATOM      7  H   UNL d   1     -17.158  29.182   3.596  0.00  0.00     0.168 HD
ENDBRANCH   1   6
TORSDOF 2
ENDMDL
MODEL 8
REMARK VINA RESULT:      -3.1      7.586      8.406
REMARK  2 active torsions:
REMARK  status: ('A' for Active; 'I' for Inactive)
REMARK    1  A    between atoms: C_2  and  O_1 
REMARK    2  A    between atoms: C_3  and  C_2 
ROOT
ATOM      1  C   UNL d   1      -7.740  35.767  -1.043  0.00  0.00     0.213 C 
ATOM      2  O   UNL d   1      -7.100  34.986  -0.371  0.00  0.00    -0.644 OA
ENDROOT
BRANCH   1   3
ATOM      3  C   UNL d   1      -7.489  37.272  -1.047  0.00  0.00     0.218 C 
ATOM      4  C   UNL d   1      -6.990  37.877   0.227  0.00  0.00     0.103 C 
ATOM      5  O   UNL d   1      -7.713  37.884  -2.087  0.00  0.00    -0.286 OA
ENDBRANCH   1   3
BRANCH   1   6
ATOM      6  O   UNL d   1      -8.750  35.455  -1.877  0.00  0.00    -0.771 OA
ATOM      7  H   UNL d   1      -8.542  35.798  -2.778  0.00  0.00     0.168 HD
ENDBRANCH   1   6
TORSDOF 2
ENDMDL
MODEL 9
REMARK VINA RESULT:      -2.8     10.017     10.687
REMARK  2 active torsions:
REMARK  status: ('A' for Active; 'I' for Inactive)
REMARK    1  A    between atoms: C_2  and  O_1 
REMARK    2  A    between atoms: C_3  and  C_2 
ROOT
ATOM      1  C   UNL d   1     -19.098  28.746   2.686  0.00  0.00     0.213 C 
ATOM      2  O   UNL d   1     -20.119  29.358   2.452  0.00  0.00    -0.644 OA
ENDROOT
BRANCH   1   3
ATOM      3  C   UNL d   1     -19.077  27.278   3.097  0.00  0.00     0.218 C 
ATOM      4  C   UNL d   1     -18.319  26.340   2.213  0.00  0.00     0.103 C 
ATOM      5  O   UNL d   1     -19.680  26.964   4.120  0.00  0.00    -0.286 OA
ENDBRANCH   1   3
BRANCH   1   6
ATOM      6  O   UNL d   1     -17.846  29.238   2.627  0.00  0.00    -0.771 OA
ATOM      7  H   UNL d   1     -17.618  29.427   1.685  0.00  0.00     0.168 HD
ENDBRANCH   1   6
TORSDOF 2
ENDMDL
