MODEL 1
REMARK VINA RESULT:      -4.3      0.000      0.000
REMARK  2 active torsions:
REMARK  status: ('A' for Active; 'I' for Inactive)
REMARK    1  A    between atoms: C_2  and  O_1 
REMARK    2  A    between atoms: C_3  and  C_2 
ROOT
ATOM      1  C   UNL d   1      -5.022  22.671  13.768  0.00  0.00     0.213 C 
ATOM      2  O   UNL d   1      -4.353  23.670  13.928  0.00  0.00    -0.644 OA
ENDROOT
BRANCH   1   3
ATOM      3  C   UNL d   1      -6.531  22.628  13.982  0.00  0.00     0.218 C 
ATOM      4  C   UNL d   1      -7.060  21.535  14.857  0.00  0.00     0.103 C 
ATOM      5  O   UNL d   1      -7.210  23.486  13.425  0.00  0.00    -0.286 OA
ENDBRANCH   1   3
BRANCH   1   6
ATOM      6  O   UNL d   1      -4.566  21.463  13.386  0.00  0.00    -0.771 OA
ATOM      7  H   UNL d   1      -5.198  21.070  12.738  0.00  0.00     0.168 HD
ENDBRANCH   1   6
TORSDOF 2
ENDMDL
MODEL 2
REMARK VINA RESULT:      -4.1      9.575     10.404
REMARK  2 active torsions:
REMARK  status: ('A' for Active; 'I' for Inactive)
REMARK    1  A    between atoms: C_2  and  O_1 
REMARK    2  A    between atoms: C_3  and  C_2 
ROOT
ATOM      1  C   UNL d   1     -12.217  20.667   6.962  0.00  0.00     0.213 C 
ATOM      2  O   UNL d   1     -11.250  20.137   7.467  0.00  0.00    -0.644 OA
ENDROOT
BRANCH   1   3
ATOM      3  C   UNL d   1     -12.232  21.196   5.531  0.00  0.00     0.218 C 
ATOM      4  C   UNL d   1     -10.919  21.616   4.952  0.00  0.00     0.103 C 
ATOM      5  O   UNL d   1     -13.314  21.243   4.953  0.00  0.00    -0.286 OA
ENDBRANCH   1   3
BRANCH   1   6
ATOM      6  O   UNL d   1     -13.409  20.874   7.554  0.00  0.00    -0.771 OA
ATOM      7  H   UNL d   1     -13.278  20.930   8.531  0.00  0.00     0.168 HD
ENDBRANCH   1   6
TORSDOF 2
ENDMDL
MODEL 3
REMARK VINA RESULT:      -4.1     29.285     29.829
REMARK  2 active torsions:
REMARK  status: ('A' for Active; 'I' for Inactive)
REMARK    1  A    between atoms: C_2  and  O_1 
REMARK    2  A    between atoms: C_3  and  C_2 
ROOT
ATOM      1  C   UNL d   1      14.353  22.539  36.082  0.00  0.00     0.213 C 
ATOM      2  O   UNL d   1      13.412  23.302  36.037  0.00  0.00    -0.644 OA
ENDROOT
BRANCH   1   3
ATOM      3  C   UNL d   1      14.887  21.793  34.864  0.00  0.00     0.218 C 
ATOM      4  C   UNL d   1      14.911  20.299  34.943  0.00  0.00     0.103 C 
ATOM      5  O   UNL d   1      15.263  22.462  33.905  0.00  0.00    -0.286 OA
ENDBRANCH   1   3
BRANCH   1   6
ATOM      6  O   UNL d   1      15.071  22.227  37.178  0.00  0.00    -0.771 OA
ATOM      7  H   UNL d   1      15.867  22.809  37.219  0.00  0.00     0.168 HD
ENDBRANCH   1   6
TORSDOF 2
ENDMDL
MODEL 4
REMARK VINA RESULT:      -4.0      1.214      2.503
REMARK  2 active torsions:
REMARK  status: ('A' for Active; 'I' for Inactive)
REMARK    1  A    between atoms: C_2  and  O_1 
REMARK    2  A    between atoms: C_3  and  C_2 
ROOT
ATOM      1  C   UNL d   1      -7.484  22.797  13.152  0.00  0.00     0.213 C 
ATOM      2  O   UNL d   1      -7.867  23.912  12.868  0.00  0.00    -0.644 OA
ENDROOT
BRANCH   1   3
ATOM      3  C   UNL d   1      -6.223  22.526  13.966  0.00  0.00     0.218 C 
ATOM      4  C   UNL d   1      -6.335  21.524  15.072  0.00  0.00     0.103 C 
ATOM      5  O   UNL d   1      -5.206  23.144  13.665  0.00  0.00    -0.286 OA
ENDBRANCH   1   3
BRANCH   1   6
ATOM      6  O   UNL d   1      -8.083  21.640  12.811  0.00  0.00    -0.771 OA
ATOM      7  H   UNL d   1      -8.420  21.199  13.628  0.00  0.00     0.168 HD
ENDBRANCH   1   6
TORSDOF 2
ENDMDL
MODEL 5
REMARK VINA RESULT:      -3.9     37.097     37.977
REMARK  2 active torsions:
REMARK  status: ('A' for Active; 'I' for Inactive)
REMARK    1  A    between atoms: C_2  and  O_1 
REMARK    2  A    between atoms: C_3  and  C_2 
ROOT
ATOM      1  C   UNL d   1      23.822  39.069  31.329  0.00  0.00     0.213 C 
ATOM      2  O   UNL d   1      23.076  39.598  32.127  0.00  0.00    -0.644 OA
ENDROOT
BRANCH   1   3
ATOM      3  C   UNL d   1      24.053  37.563  31.267  0.00  0.00     0.218 C 
ATOM      4  C   UNL d   1      25.153  37.012  32.119  0.00  0.00     0.103 C 
ATOM      5  O   UNL d   1      23.328  36.906  30.526  0.00  0.00    -0.286 OA
ENDBRANCH   1   3
BRANCH   1   6
ATOM      6  O   UNL d   1      24.553  39.698  30.389  0.00  0.00    -0.771 OA
ATOM      7  H   UNL d   1      24.301  40.652  30.369  0.00  0.00     0.168 HD
ENDBRANCH   1   6
TORSDOF 2
ENDMDL
MODEL 6
REMARK VINA RESULT:      -3.9     11.567     12.539
REMARK  2 active torsions:
REMARK  status: ('A' for Active; 'I' for Inactive)
REMARK    1  A    between atoms: C_2  and  O_1 
REMARK    2  A    between atoms: C_3  and  C_2 
ROOT
ATOM      1  C   UNL d   1     -16.975  16.662  16.415  0.00  0.00     0.213 C 
ATOM      2  O   UNL d   1     -17.004  16.329  17.581  0.00  0.00    -0.644 OA
ENDROOT
BRANCH   1   3
ATOM      3  C   UNL d   1     -16.539  18.047  15.949  0.00  0.00     0.218 C 
ATOM      4  C   UNL d   1     -15.722  18.856  16.906  0.00  0.00     0.103 C 
ATOM      5  O   UNL d   1     -16.886  18.406  14.827  0.00  0.00    -0.286 OA
ENDBRANCH   1   3
BRANCH   1   6
ATOM      6  O   UNL d   1     -17.311  15.894  15.361  0.00  0.00    -0.771 OA
ATOM      7  H   UNL d   1     -16.765  15.071  15.374  0.00  0.00     0.168 HD
ENDBRANCH   1   6
TORSDOF 2
ENDMDL
MODEL 7
REMARK VINA RESULT:      -3.9      2.013      2.657
REMARK  2 active torsions:
REMARK  status: ('A' for Active; 'I' for Inactive)
REMARK    1  A    between atoms: C_2  and  O_1 
REMARK    2  A    between atoms: C_3  and  C_2 
ROOT
ATOM      1  C   UNL d   1      -7.589  22.826  12.967  0.00  0.00     0.213 C 
ATOM      2  O   UNL d   1      -7.921  23.989  12.878  0.00  0.00    -0.644 OA
ENDROOT
BRANCH   1   3
ATOM      3  C   UNL d   1      -8.516  21.726  13.477  0.00  0.00     0.218 C 
ATOM      4  C   UNL d   1      -8.292  21.249  14.877  0.00  0.00     0.103 C 
ATOM      5  O   UNL d   1      -9.377  21.306  12.710  0.00  0.00    -0.286 OA
ENDBRANCH   1   3
BRANCH   1   6
ATOM      6  O   UNL d   1      -6.386  22.315  12.642  0.00  0.00    -0.771 OA
ATOM      7  H   UNL d   1      -5.696  23.008  12.774  0.00  0.00     0.168 HD
ENDBRANCH   1   6
TORSDOF 2
ENDMDL
MODEL 8
REMARK VINA RESULT:      -3.9      5.463      6.448
REMARK  2 active torsions:
REMARK  status: ('A' for Active; 'I' for Inactive)
REMARK    1  A    between atoms: C_2  and  O_1 
REMARK    2  A    between atoms: C_3  and  C_2 
ROOT
ATOM      1  C   UNL d   1      -9.447  19.445  18.425  0.00  0.00     0.213 C 
ATOM      2  O   UNL d   1     -10.458  19.051  17.884  0.00  0.00    -0.644 OA
ENDROOT
BRANCH   1   3
ATOM      3  C   UNL d   1      -8.267  20.041  17.665  0.00  0.00     0.218 C 
ATOM      4  C   UNL d   1      -6.899  19.696  18.162  0.00  0.00     0.103 C 
ATOM      5  O   UNL d   1      -8.515  20.763  16.703  0.00  0.00    -0.286 OA
ENDBRANCH   1   3
BRANCH   1   6
ATOM      6  O   UNL d   1      -9.195  19.427  19.748  0.00  0.00    -0.771 OA
ATOM      7  H   UNL d   1      -8.219  19.472  19.891  0.00  0.00     0.168 HD
ENDBRANCH   1   6
TORSDOF 2
ENDMDL
MODEL 9
REMARK VINA RESULT:      -3.8      2.401      3.194
REMARK  2 active torsions:
REMARK  status: ('A' for Active; 'I' for Inactive)
REMARK    1  A    between atoms: C_2  and  O_1 
REMARK    2  A    between atoms: C_3  and  C_2 
ROOT
ATOM      1  C   UNL d   1      -8.449  21.798  13.813  0.00  0.00     0.213 C 
ATOM      2  O   UNL d   1      -8.988  21.746  14.898  0.00  0.00    -0.644 OA
ENDROOT
BRANCH   1   3
ATOM      3  C   UNL d   1      -7.406  22.848  13.443  0.00  0.00     0.218 C 
ATOM      4  C   UNL d   1      -5.991  22.563  13.836  0.00  0.00     0.103 C 
ATOM      5  O   UNL d   1      -7.793  23.853  12.854  0.00  0.00    -0.286 OA
ENDBRANCH   1   3
BRANCH   1   6
ATOM      6  O   UNL d   1      -8.667  20.966  12.777  0.00  0.00    -0.771 OA
ATOM      7  H   UNL d   1      -9.631  20.758  12.727  0.00  0.00     0.168 HD
ENDBRANCH   1   6
TORSDOF 2
ENDMDL
