MODEL 1
REMARK VINA RESULT:      -4.7      0.000      0.000
REMARK  6 active torsions:
REMARK  status: ('A' for Active; 'I' for Inactive)
REMARK    1  A    between atoms: O_1  and  C_2 
REMARK    2  A    between atoms: C_2  and  C_3 
REMARK    3  A    between atoms: C_3  and  C_5 
REMARK    4  A    between atoms: C_5  and  C_6 
REMARK    5  A    between atoms: C_6  and  C_7 
REMARK    6  A    between atoms: C_7  and  O_10 
ROOT
ATOM      1  C   UNL d   1      -8.731 -24.473  10.148  0.00  0.00     0.101 C 
ENDROOT
BRANCH   1   2
ATOM      2  C   UNL d   1      -9.409 -25.806   9.843  0.00  0.00     0.118 C 
BRANCH   2   3
ATOM      3  C   UNL d   1      -8.481 -26.963  10.123  0.00  0.00     0.139 C 
ATOM      4  O   UNL d   1      -8.310 -27.916   9.382  0.00  0.00    -0.650 OA
BRANCH   3   5
ATOM      5  O   UNL d   1      -7.837 -26.841  11.305  0.00  0.00    -0.776 OA
ATOM      6  H   UNL d   1      -7.855 -25.942  11.685  0.00  0.00     0.167 HD
ENDBRANCH   3   5
ENDBRANCH   2   3
ENDBRANCH   1   2
BRANCH   1   7
ATOM      7  C   UNL d   1      -9.417 -23.318   9.464  0.00  0.00     0.222 C 
ATOM      8  O   UNL d   1     -10.541 -22.896   9.719  0.00  0.00    -0.286 OA
BRANCH   7   9
ATOM      9  C   UNL d   1      -8.627 -22.620   8.356  0.00  0.00     0.213 C 
ATOM     10  O   UNL d   1      -8.050 -21.564   8.519  0.00  0.00    -0.644 OA
BRANCH   9  11
ATOM     11  O   UNL d   1      -8.662 -23.328   7.213  0.00  0.00    -0.771 OA
ATOM     12  H   UNL d   1      -9.595 -23.554   6.989  0.00  0.00     0.168 HD
ENDBRANCH   9  11
ENDBRANCH   7   9
ENDBRANCH   1   7
TORSDOF 6
ENDMDL
MODEL 2
REMARK VINA RESULT:      -4.6      1.445      4.064
REMARK  6 active torsions:
REMARK  status: ('A' for Active; 'I' for Inactive)
REMARK    1  A    between atoms: O_1  and  C_2 
REMARK    2  A    between atoms: C_2  and  C_3 
REMARK    3  A    between atoms: C_3  and  C_5 
REMARK    4  A    between atoms: C_5  and  C_6 
REMARK    5  A    between atoms: C_6  and  C_7 
REMARK    6  A    between atoms: C_7  and  O_10 
ROOT
ATOM      1  C   UNL d   1      -9.140 -24.279  10.716  0.00  0.00     0.101 C 
ENDROOT
BRANCH   1   2
ATOM      2  C   UNL d   1      -9.592 -23.953   9.295  0.00  0.00     0.118 C 
BRANCH   2   3
ATOM      3  C   UNL d   1      -8.432 -23.479   8.453  0.00  0.00     0.139 C 
ATOM      4  O   UNL d   1      -8.502 -23.188   7.271  0.00  0.00    -0.650 OA
BRANCH   3   5
ATOM      5  O   UNL d   1      -7.277 -23.403   9.150  0.00  0.00    -0.776 OA
ATOM      6  H   UNL d   1      -6.895 -24.268   9.396  0.00  0.00     0.167 HD
ENDBRANCH   3   5
ENDBRANCH   2   3
ENDBRANCH   1   2
BRANCH   1   7
ATOM      7  C   UNL d   1      -9.252 -25.750  11.023  0.00  0.00     0.222 C 
ATOM      8  O   UNL d   1      -9.864 -26.243  11.966  0.00  0.00    -0.286 OA
BRANCH   7   9
ATOM      9  C   UNL d   1      -8.536 -26.701  10.062  0.00  0.00     0.213 C 
ATOM     10  O   UNL d   1      -9.114 -27.554   9.420  0.00  0.00    -0.644 OA
BRANCH   9  11
ATOM     11  O   UNL d   1      -7.213 -26.457  10.034  0.00  0.00    -0.771 OA
ATOM     12  H   UNL d   1      -6.732 -27.263   9.731  0.00  0.00     0.168 HD
ENDBRANCH   9  11
ENDBRANCH   7   9
ENDBRANCH   1   7
TORSDOF 6
ENDMDL
MODEL 3
REMARK VINA RESULT:      -4.5     13.792     15.648
REMARK  6 active torsions:
REMARK  status: ('A' for Active; 'I' for Inactive)
REMARK    1  A    between atoms: O_1  and  C_2 
REMARK    2  A    between atoms: C_2  and  C_3 
REMARK    3  A    between atoms: C_3  and  C_5 
REMARK    4  A    between atoms: C_5  and  C_6 
REMARK    5  A    between atoms: C_6  and  C_7 
REMARK    6  A    between atoms: C_7  and  O_10 
ROOT
ATOM      1  C   UNL d   1       3.588 -28.739  17.342  0.00  0.00     0.101 C 
ENDROOT
BRANCH   1   2
ATOM      2  C   UNL d   1       4.892 -29.272  17.928  0.00  0.00     0.118 C 
BRANCH   2   3
ATOM      3  C   UNL d   1       6.073 -28.474  17.434  0.00  0.00     0.139 C 
ATOM      4  O   UNL d   1       6.367 -27.353  17.816  0.00  0.00    -0.650 OA
BRANCH   3   5
ATOM      5  O   UNL d   1       6.798 -29.134  16.504  0.00  0.00    -0.776 OA
ATOM      6  H   UNL d   1       6.391 -29.963  16.187  0.00  0.00     0.167 HD
ENDBRANCH   3   5
ENDBRANCH   2   3
ENDBRANCH   1   2
BRANCH   1   7
ATOM      7  C   UNL d   1       2.798 -29.817  16.642  0.00  0.00     0.222 C 
ATOM      8  O   UNL d   1       2.872 -31.021  16.864  0.00  0.00    -0.286 OA
BRANCH   7   9
ATOM      9  C   UNL d   1       1.821 -29.348  15.562  0.00  0.00     0.213 C 
ATOM     10  O   UNL d   1       1.392 -30.081  14.694  0.00  0.00    -0.644 OA
BRANCH   9  11
ATOM     11  O   UNL d   1       1.516 -28.047  15.713  0.00  0.00    -0.771 OA
ATOM     12  H   UNL d   1       0.832 -27.786  15.053  0.00  0.00     0.168 HD
ENDBRANCH   9  11
ENDBRANCH   7   9
ENDBRANCH   1   7
TORSDOF 6
ENDMDL
MODEL 4
REMARK VINA RESULT:      -4.1     12.353     13.360
REMARK  6 active torsions:
REMARK  status: ('A' for Active; 'I' for Inactive)
REMARK    1  A    between atoms: O_1  and  C_2 
REMARK    2  A    between atoms: C_2  and  C_3 
REMARK    3  A    between atoms: C_3  and  C_5 
REMARK    4  A    between atoms: C_5  and  C_6 
REMARK    5  A    between atoms: C_6  and  C_7 
REMARK    6  A    between atoms: C_7  and  O_10 
ROOT
ATOM      1  C   UNL d   1       0.132 -31.312  17.442  0.00  0.00     0.101 C 
ENDROOT
BRANCH   1   2
ATOM      2  C   UNL d   1      -0.131 -32.798  17.212  0.00  0.00     0.118 C 
BRANCH   2   3
ATOM      3  C   UNL d   1      -0.736 -33.036  15.850  0.00  0.00     0.139 C 
ATOM      4  O   UNL d   1      -0.176 -33.606  14.928  0.00  0.00    -0.650 OA
BRANCH   3   5
ATOM      5  O   UNL d   1      -1.991 -32.547  15.743  0.00  0.00    -0.776 OA
ATOM      6  H   UNL d   1      -2.055 -31.697  15.266  0.00  0.00     0.167 HD
ENDBRANCH   3   5
ENDBRANCH   2   3
ENDBRANCH   1   2
BRANCH   1   7
ATOM      7  C   UNL d   1       1.264 -30.799  16.588  0.00  0.00     0.222 C 
ATOM      8  O   UNL d   1       2.437 -31.151  16.662  0.00  0.00    -0.286 OA
BRANCH   7   9
ATOM      9  C   UNL d   1       0.899 -29.746  15.540  0.00  0.00     0.213 C 
ATOM     10  O   UNL d   1      -0.003 -28.946  15.690  0.00  0.00    -0.644 OA
BRANCH   9  11
ATOM     11  O   UNL d   1       1.700 -29.834  14.463  0.00  0.00    -0.771 OA
ATOM     12  H   UNL d   1       1.593 -29.031  13.901  0.00  0.00     0.168 HD
ENDBRANCH   9  11
ENDBRANCH   7   9
ENDBRANCH   1   7
TORSDOF 6
ENDMDL
MODEL 5
REMARK VINA RESULT:      -4.0     13.365     14.475
REMARK  6 active torsions:
REMARK  status: ('A' for Active; 'I' for Inactive)
REMARK    1  A    between atoms: O_1  and  C_2 
REMARK    2  A    between atoms: C_2  and  C_3 
REMARK    3  A    between atoms: C_3  and  C_5 
REMARK    4  A    between atoms: C_5  and  C_6 
REMARK    5  A    between atoms: C_6  and  C_7 
REMARK    6  A    between atoms: C_7  and  O_10 
ROOT
ATOM      1  C   UNL d   1       2.019 -28.344  16.230  0.00  0.00     0.101 C 
ENDROOT
BRANCH   1   2
ATOM      2  C   UNL d   1       1.243 -29.538  16.777  0.00  0.00     0.118 C 
BRANCH   2   3
ATOM      3  C   UNL d   1       2.109 -30.773  16.819  0.00  0.00     0.139 C 
ATOM      4  O   UNL d   1       1.690 -31.919  16.833  0.00  0.00    -0.650 OA
BRANCH   3   5
ATOM      5  O   UNL d   1       3.429 -30.485  16.839  0.00  0.00    -0.776 OA
ATOM      6  H   UNL d   1       3.759 -30.042  16.034  0.00  0.00     0.167 HD
ENDBRANCH   3   5
ENDBRANCH   2   3
ENDBRANCH   1   2
BRANCH   1   7
ATOM      7  C   UNL d   1       2.088 -27.210  17.222  0.00  0.00     0.222 C 
ATOM      8  O   UNL d   1       1.187 -26.414  17.468  0.00  0.00    -0.286 OA
BRANCH   7   9
ATOM      9  C   UNL d   1       3.406 -27.054  17.982  0.00  0.00     0.213 C 
ATOM     10  O   UNL d   1       4.027 -27.995  18.432  0.00  0.00    -0.644 OA
BRANCH   9  11
ATOM     11  O   UNL d   1       3.765 -25.760  18.072  0.00  0.00    -0.771 OA
ATOM     12  H   UNL d   1       3.529 -25.289  17.239  0.00  0.00     0.168 HD
ENDBRANCH   9  11
ENDBRANCH   7   9
ENDBRANCH   1   7
TORSDOF 6
ENDMDL
MODEL 6
REMARK VINA RESULT:      -4.0      5.822      7.476
REMARK  6 active torsions:
REMARK  status: ('A' for Active; 'I' for Inactive)
REMARK    1  A    between atoms: O_1  and  C_2 
REMARK    2  A    between atoms: C_2  and  C_3 
REMARK    3  A    between atoms: C_3  and  C_5 
REMARK    4  A    between atoms: C_5  and  C_6 
REMARK    5  A    between atoms: C_6  and  C_7 
REMARK    6  A    between atoms: C_7  and  O_10 
ROOT
ATOM      1  C   UNL d   1      -4.195 -29.588  14.000  0.00  0.00     0.101 C 
ENDROOT
BRANCH   1   2
ATOM      2  C   UNL d   1      -5.403 -30.434  14.389  0.00  0.00     0.118 C 
BRANCH   2   3
ATOM      3  C   UNL d   1      -6.123 -29.836  15.574  0.00  0.00     0.139 C 
ATOM      4  O   UNL d   1      -5.619 -29.630  16.666  0.00  0.00    -0.650 OA
BRANCH   3   5
ATOM      5  O   UNL d   1      -7.415 -29.542  15.306  0.00  0.00    -0.776 OA
ATOM      6  H   UNL d   1      -8.056 -30.200  15.633  0.00  0.00     0.167 HD
ENDBRANCH   3   5
ENDBRANCH   2   3
ENDBRANCH   1   2
BRANCH   1   7
ATOM      7  C   UNL d   1      -4.591 -28.202  13.556  0.00  0.00     0.222 C 
ATOM      8  O   UNL d   1      -4.433 -27.169  14.198  0.00  0.00    -0.286 OA
BRANCH   7   9
ATOM      9  C   UNL d   1      -5.246 -28.093  12.178  0.00  0.00     0.213 C 
ATOM     10  O   UNL d   1      -6.411 -27.789  12.020  0.00  0.00    -0.644 OA
BRANCH   9  11
ATOM     11  O   UNL d   1      -4.368 -28.373  11.198  0.00  0.00    -0.771 OA
ATOM     12  H   UNL d   1      -3.712 -27.642  11.119  0.00  0.00     0.168 HD
ENDBRANCH   9  11
ENDBRANCH   7   9
ENDBRANCH   1   7
TORSDOF 6
ENDMDL
MODEL 7
REMARK VINA RESULT:      -3.9     12.875     14.366
REMARK  6 active torsions:
REMARK  status: ('A' for Active; 'I' for Inactive)
REMARK    1  A    between atoms: O_1  and  C_2 
REMARK    2  A    between atoms: C_2  and  C_3 
REMARK    3  A    between atoms: C_3  and  C_5 
REMARK    4  A    between atoms: C_5  and  C_6 
REMARK    5  A    between atoms: C_6  and  C_7 
REMARK    6  A    between atoms: C_7  and  O_10 
ROOT
ATOM      1  C   UNL d   1       0.808 -28.596  16.574  0.00  0.00     0.101 C 
ENDROOT
BRANCH   1   2
ATOM      2  C   UNL d   1       1.427 -27.227  16.308  0.00  0.00     0.118 C 
BRANCH   2   3
ATOM      3  C   UNL d   1       2.115 -26.694  17.541  0.00  0.00     0.139 C 
ATOM      4  O   UNL d   1       1.685 -25.798  18.248  0.00  0.00    -0.650 OA
BRANCH   3   5
ATOM      5  O   UNL d   1       3.286 -27.319  17.797  0.00  0.00    -0.776 OA
ATOM      6  H   UNL d   1       3.286 -27.861  18.609  0.00  0.00     0.167 HD
ENDBRANCH   3   5
ENDBRANCH   2   3
ENDBRANCH   1   2
BRANCH   1   7
ATOM      7  C   UNL d   1       1.545 -29.700  15.859  0.00  0.00     0.222 C 
ATOM      8  O   UNL d   1       1.491 -29.939  14.657  0.00  0.00    -0.286 OA
BRANCH   7   9
ATOM      9  C   UNL d   1       2.437 -30.591  16.725  0.00  0.00     0.213 C 
ATOM     10  O   UNL d   1       3.466 -30.200  17.239  0.00  0.00    -0.644 OA
BRANCH   9  11
ATOM     11  O   UNL d   1       1.929 -31.832  16.831  0.00  0.00    -0.771 OA
ATOM     12  H   UNL d   1       1.406 -31.909  17.663  0.00  0.00     0.168 HD
ENDBRANCH   9  11
ENDBRANCH   7   9
ENDBRANCH   1   7
TORSDOF 6
ENDMDL
MODEL 8
REMARK VINA RESULT:      -3.9     14.956     16.469
REMARK  6 active torsions:
REMARK  status: ('A' for Active; 'I' for Inactive)
REMARK    1  A    between atoms: O_1  and  C_2 
REMARK    2  A    between atoms: C_2  and  C_3 
REMARK    3  A    between atoms: C_3  and  C_5 
REMARK    4  A    between atoms: C_5  and  C_6 
REMARK    5  A    between atoms: C_6  and  C_7 
REMARK    6  A    between atoms: C_7  and  O_10 
ROOT
ATOM      1  C   UNL d   1       7.068 -19.695   6.039  0.00  0.00     0.101 C 
ENDROOT
BRANCH   1   2
ATOM      2  C   UNL d   1       7.404 -18.597   7.043  0.00  0.00     0.118 C 
BRANCH   2   3
ATOM      3  C   UNL d   1       6.191 -17.752   7.349  0.00  0.00     0.139 C 
ATOM      4  O   UNL d   1       5.085 -17.916   6.860  0.00  0.00    -0.650 OA
BRANCH   3   5
ATOM      5  O   UNL d   1       6.450 -16.769   8.239  0.00  0.00    -0.776 OA
ATOM      6  H   UNL d   1       7.206 -16.199   8.004  0.00  0.00     0.167 HD
ENDBRANCH   3   5
ENDBRANCH   2   3
ENDBRANCH   1   2
BRANCH   1   7
ATOM      7  C   UNL d   1       6.850 -21.028   6.708  0.00  0.00     0.222 C 
ATOM      8  O   UNL d   1       7.730 -21.806   7.064  0.00  0.00    -0.286 OA
BRANCH   7   9
ATOM      9  C   UNL d   1       5.396 -21.431   6.960  0.00  0.00     0.213 C 
ATOM     10  O   UNL d   1       4.864 -21.347   8.049  0.00  0.00    -0.644 OA
BRANCH   9  11
ATOM     11  O   UNL d   1       4.811 -21.875   5.833  0.00  0.00    -0.771 OA
ATOM     12  H   UNL d   1       3.841 -21.974   5.976  0.00  0.00     0.168 HD
ENDBRANCH   9  11
ENDBRANCH   7   9
ENDBRANCH   1   7
TORSDOF 6
ENDMDL
MODEL 9
REMARK VINA RESULT:      -3.8     22.514     23.608
REMARK  6 active torsions:
REMARK  status: ('A' for Active; 'I' for Inactive)
REMARK    1  A    between atoms: O_1  and  C_2 
REMARK    2  A    between atoms: C_2  and  C_3 
REMARK    3  A    between atoms: C_3  and  C_5 
REMARK    4  A    between atoms: C_5  and  C_6 
REMARK    5  A    between atoms: C_6  and  C_7 
REMARK    6  A    between atoms: C_7  and  O_10 
ROOT
ATOM      1  C   UNL d   1       7.559 -25.726  -7.570  0.00  0.00     0.101 C 
ENDROOT
BRANCH   1   2
ATOM      2  C   UNL d   1       8.371 -26.660  -8.462  0.00  0.00     0.118 C 
BRANCH   2   3
ATOM      3  C   UNL d   1       9.156 -27.651  -7.637  0.00  0.00     0.139 C 
ATOM      4  O   UNL d   1       9.582 -28.718  -8.046  0.00  0.00    -0.650 OA
BRANCH   3   5
ATOM      5  O   UNL d   1       9.350 -27.234  -6.366  0.00  0.00    -0.776 OA
ATOM      6  H   UNL d   1       9.057 -26.320  -6.191  0.00  0.00     0.167 HD
ENDBRANCH   3   5
ENDBRANCH   2   3
ENDBRANCH   1   2
BRANCH   1   7
ATOM      7  C   UNL d   1       6.077 -25.972  -7.691  0.00  0.00     0.222 C 
ATOM      8  O   UNL d   1       5.236 -25.142  -8.025  0.00  0.00    -0.286 OA
BRANCH   7   9
ATOM      9  C   UNL d   1       5.595 -27.387  -7.368  0.00  0.00     0.213 C 
ATOM     10  O   UNL d   1       5.214 -28.167  -8.217  0.00  0.00    -0.644 OA
BRANCH   9  11
ATOM     11  O   UNL d   1       5.656 -27.632  -6.047  0.00  0.00    -0.771 OA
ATOM     12  H   UNL d   1       4.774 -27.930  -5.721  0.00  0.00     0.168 HD
ENDBRANCH   9  11
ENDBRANCH   7   9
ENDBRANCH   1   7
TORSDOF 6
ENDMDL
