MODEL 1
REMARK VINA RESULT:      -3.2      0.000      0.000
REMARK  6 active torsions:
REMARK  status: ('A' for Active; 'I' for Inactive)
REMARK    1  A    between atoms: C1_2  and  O1_1 
REMARK    2  A    between atoms: C2_3  and  C1_2 
REMARK    3  A    between atoms: N1_6  and  C2_3 
REMARK    4  A    between atoms: C2_3  and  C3_5 
REMARK    5  A    between atoms: C3_5  and  S1_7 
REMARK    6  A    between atoms: S1_7  and  O5_10 
ROOT
ATOM      1  C2  <1> d   1     -25.985 -15.862 -26.151  0.00  0.00     0.330 C 
ENDROOT
BRANCH   1   2
ATOM      2  N1  <1> d   1     -26.987 -14.883 -26.615  0.00  0.00     0.094 N 
ATOM      3  H5  <1> d   1     -26.597 -14.143 -27.207  0.00  0.00     0.314 HD
ATOM      4  H6  <1> d   1     -27.598 -14.531 -25.882  0.00  0.00     0.314 HD
ENDBRANCH   1   2
BRANCH   1   5
ATOM      5  C3  <1> d   1     -26.582 -17.144 -25.582  0.00  0.00     0.202 C 
BRANCH   5   6
ATOM      6  S1  <1> d   1     -28.286 -17.015 -25.076  0.00  0.00     0.096 S 
ATOM      7  O3  <1> d   1     -28.730 -18.292 -24.569  0.00  0.00    -0.601 OA
ATOM      8  O4  <1> d   1     -28.484 -15.777 -24.355  0.00  0.00    -0.601 OA
BRANCH   6   9
ATOM      9  O5  <1> d   1     -28.984 -16.851 -26.519  0.00  0.00    -0.296 OA
ATOM     10  H7  <1> d   1     -28.769 -15.965 -26.882  0.00  0.00     0.232 HD
ENDBRANCH   6   9
ENDBRANCH   5   6
ENDBRANCH   1   5
BRANCH   1  11
ATOM     11  C1  <1> d   1     -24.902 -16.174 -27.188  0.00  0.00     0.174 C 
ATOM     12  O2  <1> d   1     -24.300 -17.239 -27.223  0.00  0.00    -0.648 OA
BRANCH  11  13
ATOM     13  O1  <1> d   1     -24.643 -15.167 -28.049  0.00  0.00    -0.775 OA
ATOM     14  H1  <1> d   1     -25.398 -15.008 -28.648  0.00  0.00     0.167 HD
ENDBRANCH  11  13
ENDBRANCH   1  11
TORSDOF 6
ENDMDL
MODEL 2
REMARK VINA RESULT:      -3.1     10.030     11.267
REMARK  6 active torsions:
REMARK  status: ('A' for Active; 'I' for Inactive)
REMARK    1  A    between atoms: C1_2  and  O1_1 
REMARK    2  A    between atoms: C2_3  and  C1_2 
REMARK    3  A    between atoms: N1_6  and  C2_3 
REMARK    4  A    between atoms: C2_3  and  C3_5 
REMARK    5  A    between atoms: C3_5  and  S1_7 
REMARK    6  A    between atoms: S1_7  and  O5_10 
ROOT
ATOM      1  C2  <1> d   1     -23.656 -26.806 -27.276  0.00  0.00     0.330 C 
ENDROOT
BRANCH   1   2
ATOM      2  N1  <1> d   1     -24.837 -27.467 -27.862  0.00  0.00     0.094 N 
ATOM      3  H5  <1> d   1     -25.108 -28.331 -27.381  0.00  0.00     0.314 HD
ATOM      4  H6  <1> d   1     -24.802 -27.566 -28.874  0.00  0.00     0.314 HD
ENDBRANCH   1   2
BRANCH   1   5
ATOM      5  C3  <1> d   1     -23.287 -25.484 -27.939  0.00  0.00     0.202 C 
BRANCH   5   6
ATOM      6  S1  <1> d   1     -21.537 -25.211 -28.140  0.00  0.00     0.096 S 
ATOM      7  O3  <1> d   1     -21.197 -23.906 -27.626  0.00  0.00    -0.601 OA
ATOM      8  O4  <1> d   1     -20.815 -26.408 -27.769  0.00  0.00    -0.601 OA
BRANCH   6   9
ATOM      9  O5  <1> d   1     -21.466 -25.083 -29.744  0.00  0.00    -0.296 OA
ATOM     10  H7  <1> d   1     -21.208 -24.166 -29.983  0.00  0.00     0.232 HD
ENDBRANCH   6   9
ENDBRANCH   5   6
ENDBRANCH   1   5
BRANCH   1  11
ATOM     11  C1  <1> d   1     -23.727 -26.655 -25.753  0.00  0.00     0.174 C 
ATOM     12  O2  <1> d   1     -24.485 -25.872 -25.195  0.00  0.00    -0.648 OA
BRANCH  11  13
ATOM     13  O1  <1> d   1     -22.864 -27.438 -25.071  0.00  0.00    -0.775 OA
ATOM     14  H1  <1> d   1     -22.870 -28.353 -25.410  0.00  0.00     0.167 HD
ENDBRANCH  11  13
ENDBRANCH   1  11
TORSDOF 6
ENDMDL
MODEL 3
REMARK VINA RESULT:      -3.0      2.599      4.579
REMARK  6 active torsions:
REMARK  status: ('A' for Active; 'I' for Inactive)
REMARK    1  A    between atoms: C1_2  and  O1_1 
REMARK    2  A    between atoms: C2_3  and  C1_2 
REMARK    3  A    between atoms: N1_6  and  C2_3 
REMARK    4  A    between atoms: C2_3  and  C3_5 
REMARK    5  A    between atoms: C3_5  and  S1_7 
REMARK    6  A    between atoms: S1_7  and  O5_10 
ROOT
ATOM      1  C2  <1> d   1     -26.163 -14.744 -25.616  0.00  0.00     0.330 C 
ENDROOT
BRANCH   1   2
ATOM      2  N1  <1> d   1     -25.545 -15.986 -25.114  0.00  0.00     0.094 N 
ATOM      3  H5  <1> d   1     -24.560 -15.880 -24.853  0.00  0.00     0.314 HD
ATOM      4  H6  <1> d   1     -25.721 -16.804 -25.692  0.00  0.00     0.314 HD
ENDBRANCH   1   2
BRANCH   1   5
ATOM      5  C3  <1> d   1     -25.302 -13.976 -26.612  0.00  0.00     0.202 C 
BRANCH   5   6
ATOM      6  S1  <1> d   1     -24.020 -14.939 -27.390  0.00  0.00     0.096 S 
ATOM      7  O3  <1> d   1     -23.566 -14.256 -28.578  0.00  0.00    -0.601 OA
ATOM      8  O4  <1> d   1     -23.112 -15.440 -26.382  0.00  0.00    -0.601 OA
BRANCH   6   9
ATOM      9  O5  <1> d   1     -24.898 -16.185 -27.911  0.00  0.00    -0.296 OA
ATOM     10  H7  <1> d   1     -24.360 -16.721 -28.533  0.00  0.00     0.232 HD
ENDBRANCH   6   9
ENDBRANCH   5   6
ENDBRANCH   1   5
BRANCH   1  11
ATOM     11  C1  <1> d   1     -27.585 -14.937 -26.155  0.00  0.00     0.174 C 
ATOM     12  O2  <1> d   1     -28.479 -14.119 -25.984  0.00  0.00    -0.648 OA
BRANCH  11  13
ATOM     13  O1  <1> d   1     -27.781 -16.099 -26.815  0.00  0.00    -0.775 OA
ATOM     14  H1  <1> d   1     -28.405 -15.985 -27.556  0.00  0.00     0.167 HD
ENDBRANCH  11  13
ENDBRANCH   1  11
TORSDOF 6
ENDMDL
MODEL 4
REMARK VINA RESULT:      -2.9      2.472      4.503
REMARK  6 active torsions:
REMARK  status: ('A' for Active; 'I' for Inactive)
REMARK    1  A    between atoms: C1_2  and  O1_1 
REMARK    2  A    between atoms: C2_3  and  C1_2 
REMARK    3  A    between atoms: N1_6  and  C2_3 
REMARK    4  A    between atoms: C2_3  and  C3_5 
REMARK    5  A    between atoms: C3_5  and  S1_7 
REMARK    6  A    between atoms: S1_7  and  O5_10 
ROOT
ATOM      1  C2  <1> d   1     -28.474 -17.318 -24.989  0.00  0.00     0.330 C 
ENDROOT
BRANCH   1   2
ATOM      2  N1  <1> d   1     -27.624 -18.523 -24.931  0.00  0.00     0.094 N 
ATOM      3  H5  <1> d   1     -26.697 -18.355 -24.527  0.00  0.00     0.314 HD
ATOM      4  H6  <1> d   1     -27.594 -19.055 -25.797  0.00  0.00     0.314 HD
ENDBRANCH   1   2
BRANCH   1   5
ATOM      5  C3  <1> d   1     -28.051 -16.306 -26.049  0.00  0.00     0.202 C 
BRANCH   5   6
ATOM      6  S1  <1> d   1     -26.401 -15.665 -25.853  0.00  0.00     0.096 S 
ATOM      7  O3  <1> d   1     -26.269 -15.083 -24.539  0.00  0.00    -0.601 OA
ATOM      8  O4  <1> d   1     -25.447 -16.612 -26.387  0.00  0.00    -0.601 OA
BRANCH   6   9
ATOM      9  O5  <1> d   1     -26.471 -14.423 -26.876  0.00  0.00    -0.296 OA
ATOM     10  H7  <1> d   1     -26.900 -14.715 -27.709  0.00  0.00     0.232 HD
ENDBRANCH   6   9
ENDBRANCH   5   6
ENDBRANCH   1   5
BRANCH   1  11
ATOM     11  C1  <1> d   1     -29.972 -17.624 -25.089  0.00  0.00     0.174 C 
ATOM     12  O2  <1> d   1     -30.629 -18.048 -24.148  0.00  0.00    -0.648 OA
BRANCH  11  13
ATOM     13  O1  <1> d   1     -30.507 -17.412 -26.311  0.00  0.00    -0.775 OA
ATOM     14  H1  <1> d   1     -30.330 -18.160 -26.911  0.00  0.00     0.167 HD
ENDBRANCH  11  13
ENDBRANCH   1  11
TORSDOF 6
ENDMDL
MODEL 5
REMARK VINA RESULT:      -2.9      2.838      3.223
REMARK  6 active torsions:
REMARK  status: ('A' for Active; 'I' for Inactive)
REMARK    1  A    between atoms: C1_2  and  O1_1 
REMARK    2  A    between atoms: C2_3  and  C1_2 
REMARK    3  A    between atoms: N1_6  and  C2_3 
REMARK    4  A    between atoms: C2_3  and  C3_5 
REMARK    5  A    between atoms: C3_5  and  S1_7 
REMARK    6  A    between atoms: S1_7  and  O5_10 
ROOT
ATOM      1  C2  <1> d   1     -28.151 -14.409 -26.332  0.00  0.00     0.330 C 
ENDROOT
BRANCH   1   2
ATOM      2  N1  <1> d   1     -26.992 -15.276 -26.622  0.00  0.00     0.094 N 
ATOM      3  H5  <1> d   1     -26.136 -14.759 -26.845  0.00  0.00     0.314 HD
ATOM      4  H6  <1> d   1     -27.188 -16.030 -27.276  0.00  0.00     0.314 HD
ENDBRANCH   1   2
BRANCH   1   5
ATOM      5  C3  <1> d   1     -28.914 -14.789 -25.068  0.00  0.00     0.202 C 
BRANCH   5   6
ATOM      6  S1  <1> d   1     -29.283 -16.525 -24.911  0.00  0.00     0.096 S 
ATOM      7  O3  <1> d   1     -28.088 -17.232 -24.517  0.00  0.00    -0.601 OA
ATOM      8  O4  <1> d   1     -30.549 -16.691 -24.231  0.00  0.00    -0.601 OA
BRANCH   6   9
ATOM      9  O5  <1> d   1     -29.518 -16.892 -26.462  0.00  0.00    -0.296 OA
ATOM     10  H7  <1> d   1     -29.995 -16.154 -26.900  0.00  0.00     0.232 HD
ENDBRANCH   6   9
ENDBRANCH   5   6
ENDBRANCH   1   5
BRANCH   1  11
ATOM     11  C1  <1> d   1     -27.820 -12.913 -26.344  0.00  0.00     0.174 C 
ATOM     12  O2  <1> d   1     -27.261 -12.347 -25.414  0.00  0.00    -0.648 OA
BRANCH  11  13
ATOM     13  O1  <1> d   1     -28.218 -12.260 -27.457  0.00  0.00    -0.775 OA
ATOM     14  H1  <1> d   1     -29.186 -12.302 -27.567  0.00  0.00     0.167 HD
ENDBRANCH  11  13
ENDBRANCH   1  11
TORSDOF 6
ENDMDL
MODEL 6
REMARK VINA RESULT:      -2.9      2.825      4.148
REMARK  6 active torsions:
REMARK  status: ('A' for Active; 'I' for Inactive)
REMARK    1  A    between atoms: C1_2  and  O1_1 
REMARK    2  A    between atoms: C2_3  and  C1_2 
REMARK    3  A    between atoms: N1_6  and  C2_3 
REMARK    4  A    between atoms: C2_3  and  C3_5 
REMARK    5  A    between atoms: C3_5  and  S1_7 
REMARK    6  A    between atoms: S1_7  and  O5_10 
ROOT
ATOM      1  C2  <1> d   1     -26.274 -13.210 -26.001  0.00  0.00     0.330 C 
ENDROOT
BRANCH   1   2
ATOM      2  N1  <1> d   1     -26.208 -13.630 -24.588  0.00  0.00     0.094 N 
ATOM      3  H5  <1> d   1     -25.329 -14.094 -24.336  0.00  0.00     0.314 HD
ATOM      4  H6  <1> d   1     -27.032 -14.128 -24.261  0.00  0.00     0.314 HD
ENDBRANCH   1   2
BRANCH   1   5
ATOM      5  C3  <1> d   1     -25.389 -14.026 -26.937  0.00  0.00     0.202 C 
BRANCH   5   6
ATOM      6  S1  <1> d   1     -25.240 -15.749 -26.511  0.00  0.00     0.096 S 
ATOM      7  O3  <1> d   1     -24.106 -15.926 -25.635  0.00  0.00    -0.601 OA
ATOM      8  O4  <1> d   1     -26.548 -16.290 -26.214  0.00  0.00    -0.601 OA
BRANCH   6   9
ATOM      9  O5  <1> d   1     -24.786 -16.342 -27.938  0.00  0.00    -0.296 OA
ATOM     10  H7  <1> d   1     -23.833 -16.574 -27.903  0.00  0.00     0.232 HD
ENDBRANCH   6   9
ENDBRANCH   5   6
ENDBRANCH   1   5
BRANCH   1  11
ATOM     11  C1  <1> d   1     -27.702 -13.107 -26.547  0.00  0.00     0.174 C 
ATOM     12  O2  <1> d   1     -28.041 -12.269 -27.372  0.00  0.00    -0.648 OA
BRANCH  11  13
ATOM     13  O1  <1> d   1     -28.568 -14.002 -26.024  0.00  0.00    -0.775 OA
ATOM     14  H1  <1> d   1     -29.133 -13.593 -25.342  0.00  0.00     0.167 HD
ENDBRANCH  11  13
ENDBRANCH   1  11
TORSDOF 6
ENDMDL
MODEL 7
REMARK VINA RESULT:      -2.6      3.378      4.677
REMARK  6 active torsions:
REMARK  status: ('A' for Active; 'I' for Inactive)
REMARK    1  A    between atoms: C1_2  and  O1_1 
REMARK    2  A    between atoms: C2_3  and  C1_2 
REMARK    3  A    between atoms: N1_6  and  C2_3 
REMARK    4  A    between atoms: C2_3  and  C3_5 
REMARK    5  A    between atoms: C3_5  and  S1_7 
REMARK    6  A    between atoms: S1_7  and  O5_10 
ROOT
ATOM      1  C2  <1> d   1     -26.088 -14.112 -26.373  0.00  0.00     0.330 C 
ENDROOT
BRANCH   1   2
ATOM      2  N1  <1> d   1     -26.908 -15.327 -26.543  0.00  0.00     0.094 N 
ATOM      3  H5  <1> d   1     -26.450 -16.061 -27.092  0.00  0.00     0.314 HD
ATOM      4  H6  <1> d   1     -27.866 -15.147 -26.835  0.00  0.00     0.314 HD
ENDBRANCH   1   2
BRANCH   1   5
ATOM      5  C3  <1> d   1     -24.844 -14.070 -27.254  0.00  0.00     0.202 C 
BRANCH   5   6
ATOM      6  S1  <1> d   1     -23.894 -15.578 -27.277  0.00  0.00     0.096 S 
ATOM      7  O3  <1> d   1     -24.703 -16.642 -27.820  0.00  0.00    -0.601 OA
ATOM      8  O4  <1> d   1     -22.554 -15.298 -27.746  0.00  0.00    -0.601 OA
BRANCH   6   9
ATOM      9  O5  <1> d   1     -23.801 -15.863 -25.694  0.00  0.00    -0.296 OA
ATOM     10  H7  <1> d   1     -23.212 -16.632 -25.539  0.00  0.00     0.232 HD
ENDBRANCH   6   9
ENDBRANCH   5   6
ENDBRANCH   1   5
BRANCH   1  11
ATOM     11  C1  <1> d   1     -26.885 -12.809 -26.487  0.00  0.00     0.174 C 
ATOM     12  O2  <1> d   1     -27.849 -12.680 -27.230  0.00  0.00    -0.648 OA
BRANCH  11  13
ATOM     13  O1  <1> d   1     -26.422 -11.800 -25.719  0.00  0.00    -0.775 OA
ATOM     14  H1  <1> d   1     -25.448 -11.809 -25.669  0.00  0.00     0.167 HD
ENDBRANCH  11  13
ENDBRANCH   1  11
TORSDOF 6
ENDMDL
MODEL 8
REMARK VINA RESULT:      -2.5      3.640      4.965
REMARK  6 active torsions:
REMARK  status: ('A' for Active; 'I' for Inactive)
REMARK    1  A    between atoms: C1_2  and  O1_1 
REMARK    2  A    between atoms: C2_3  and  C1_2 
REMARK    3  A    between atoms: N1_6  and  C2_3 
REMARK    4  A    between atoms: C2_3  and  C3_5 
REMARK    5  A    between atoms: C3_5  and  S1_7 
REMARK    6  A    between atoms: S1_7  and  O5_10 
ROOT
ATOM      1  C2  <1> d   1     -28.167 -14.558 -25.534  0.00  0.00     0.330 C 
ENDROOT
BRANCH   1   2
ATOM      2  N1  <1> d   1     -27.141 -14.665 -26.589  0.00  0.00     0.094 N 
ATOM      3  H5  <1> d   1     -27.527 -14.810 -27.527  0.00  0.00     0.314 HD
ATOM      4  H6  <1> d   1     -26.378 -15.300 -26.366  0.00  0.00     0.314 HD
ENDBRANCH   1   2
BRANCH   1   5
ATOM      5  C3  <1> d   1     -29.026 -13.301 -25.623  0.00  0.00     0.202 C 
BRANCH   5   6
ATOM      6  S1  <1> d   1     -28.144 -11.825 -26.091  0.00  0.00     0.096 S 
ATOM      7  O3  <1> d   1     -28.897 -10.667 -25.671  0.00  0.00    -0.601 OA
ATOM      8  O4  <1> d   1     -26.737 -11.989 -25.800  0.00  0.00    -0.601 OA
BRANCH   6   9
ATOM      9  O5  <1> d   1     -28.317 -11.903 -27.691  0.00  0.00    -0.296 OA
ATOM     10  H7  <1> d   1     -28.661 -11.045 -28.020  0.00  0.00     0.232 HD
ENDBRANCH   6   9
ENDBRANCH   5   6
ENDBRANCH   1   5
BRANCH   1  11
ATOM     11  C1  <1> d   1     -29.040 -15.809 -25.393  0.00  0.00     0.174 C 
ATOM     12  O2  <1> d   1     -29.054 -16.709 -26.223  0.00  0.00    -0.648 OA
BRANCH  11  13
ATOM     13  O1  <1> d   1     -29.815 -15.831 -24.287  0.00  0.00    -0.775 OA
ATOM     14  H1  <1> d   1     -29.276 -15.886 -23.476  0.00  0.00     0.167 HD
ENDBRANCH  11  13
ENDBRANCH   1  11
TORSDOF 6
ENDMDL
MODEL 9
REMARK VINA RESULT:      -2.5      2.538      3.011
REMARK  6 active torsions:
REMARK  status: ('A' for Active; 'I' for Inactive)
REMARK    1  A    between atoms: C1_2  and  O1_1 
REMARK    2  A    between atoms: C2_3  and  C1_2 
REMARK    3  A    between atoms: N1_6  and  C2_3 
REMARK    4  A    between atoms: C2_3  and  C3_5 
REMARK    5  A    between atoms: C3_5  and  S1_7 
REMARK    6  A    between atoms: S1_7  and  O5_10 
ROOT
ATOM      1  C2  <1> d   1     -28.374 -15.880 -24.983  0.00  0.00     0.330 C 
ENDROOT
BRANCH   1   2
ATOM      2  N1  <1> d   1     -29.413 -15.082 -24.304  0.00  0.00     0.094 N 
ATOM      3  H5  <1> d   1     -29.197 -14.872 -23.324  0.00  0.00     0.314 HD
ATOM      4  H6  <1> d   1     -30.361 -15.426 -24.441  0.00  0.00     0.314 HD
ENDBRANCH   1   2
BRANCH   1   5
ATOM      5  C3  <1> d   1     -28.854 -17.242 -25.471  0.00  0.00     0.202 C 
BRANCH   5   6
ATOM      6  S1  <1> d   1     -29.882 -18.130 -24.319  0.00  0.00     0.096 S 
ATOM      7  O3  <1> d   1     -29.087 -18.532 -23.183  0.00  0.00    -0.601 OA
ATOM      8  O4  <1> d   1     -31.152 -17.452 -24.182  0.00  0.00    -0.601 OA
BRANCH   6   9
ATOM      9  O5  <1> d   1     -30.142 -19.474 -25.169  0.00  0.00    -0.296 OA
ATOM     10  H7  <1> d   1     -31.079 -19.745 -25.065  0.00  0.00     0.232 HD
ENDBRANCH   6   9
ENDBRANCH   5   6
ENDBRANCH   1   5
BRANCH   1  11
ATOM     11  C1  <1> d   1     -27.645 -15.123 -26.097  0.00  0.00     0.174 C 
ATOM     12  O2  <1> d   1     -27.877 -13.952 -26.369  0.00  0.00    -0.648 OA
BRANCH  11  13
ATOM     13  O1  <1> d   1     -26.740 -15.859 -26.776  0.00  0.00    -0.775 OA
ATOM     14  H1  <1> d   1     -25.830 -15.548 -26.609  0.00  0.00     0.167 HD
ENDBRANCH  11  13
ENDBRANCH   1  11
TORSDOF 6
ENDMDL
