MODEL 1
REMARK VINA RESULT:      -5.0      0.000      0.000
REMARK  12 active torsions:
REMARK  status: ('A' for Active; 'I' for Inactive)
REMARK    1  A    between atoms: C_2  and  C_3 
REMARK    2  A    between atoms: C_3  and  C_4 
REMARK    3  A    between atoms: C_4  and  S_6 
REMARK    4  A    between atoms: S_6  and  C_8 
REMARK    5  A    between atoms: C_8  and  C_9 
REMARK    6  A    between atoms: C_9  and  C_10 
REMARK    7  A    between atoms: C_10  and  S_12 
REMARK    8  A    between atoms: C_10  and  C_11 
REMARK    9  A    between atoms: C_11  and  C_13 
REMARK   10  A    between atoms: C_13  and  C_14 
REMARK   11  A    between atoms: C_14  and  C_15 
REMARK   12  A    between atoms: C_15  and  C_16 
REMARK       I    between atoms: C_16  and  N_18 
ROOT
ATOM      1  C   UNL d   1      34.065 -29.097 -23.034  0.00  0.00     0.045 C 
ENDROOT
BRANCH   1   2
ATOM      2  C   UNL d   1      33.259 -30.409 -23.008  0.00  0.00     0.025 C 
BRANCH   2   3
ATOM      3  C   UNL d   1      33.048 -31.039 -24.384  0.00  0.00     0.083 C 
BRANCH   3   4
ATOM      4  S   UNL d   1      33.780 -32.696 -24.448  0.00  0.00    -0.092 SA
BRANCH   4   5
ATOM      5  C   UNL d   1      35.321 -32.273 -25.206  0.00  0.00     0.189 C 
ATOM      6  O   UNL d   1      36.336 -32.934 -25.024  0.00  0.00    -0.285 OA
BRANCH   5   7
ATOM      7  C   UNL d   1      35.244 -31.054 -26.114  0.00  0.00     0.062 C 
ATOM      8  C   UNL d   1      35.084 -31.538 -27.555  0.00  0.00     0.018 C 
BRANCH   7   9
ATOM      9  C   UNL d   1      36.492 -30.168 -25.981  0.00  0.00     0.008 C 
ATOM     10  C   UNL d   1      37.159 -29.866 -27.318  0.00  0.00     0.006 C 
ENDBRANCH   7   9
ENDBRANCH   5   7
ENDBRANCH   4   5
ENDBRANCH   3   4
ENDBRANCH   2   3
ENDBRANCH   1   2
BRANCH   1  11
ATOM     11  S   UNL d   1      33.027 -27.645 -22.618  0.00  0.00    -0.177 SA
ATOM     12  H   UNL d   1      33.908 -27.022 -21.824  0.00  0.00     0.102 HD
ENDBRANCH   1  11
BRANCH   1  13
ATOM     13  C   UNL d   1      35.312 -29.116 -22.130  0.00  0.00     0.015 C 
BRANCH  13  14
ATOM     14  C   UNL d   1      35.976 -30.499 -22.020  0.00  0.00     0.002 C 
BRANCH  14  15
ATOM     15  C   UNL d   1      36.100 -31.030 -20.588  0.00  0.00     0.009 C 
BRANCH  15  16
ATOM     16  C   UNL d   1      34.953 -30.555 -19.698  0.00  0.00     0.102 C 
BRANCH  16  17
ATOM     17  C   UNL d   1      33.952 -31.645 -19.396  0.00  0.00     0.215 C 
ATOM     18  N   UNL d   1      34.378 -32.890 -19.759  0.00  0.00    -0.370 N 
ATOM     19  H   UNL d   1      35.238 -33.052 -20.257  0.00  0.00     0.159 HD
ATOM     20  H   UNL d   1      33.736 -33.662 -19.632  0.00  0.00     0.159 HD
ATOM     21  O   UNL d   1      32.853 -31.468 -18.886  0.00  0.00    -0.274 OA
ENDBRANCH  16  17
ENDBRANCH  15  16
ENDBRANCH  14  15
ENDBRANCH  13  14
ENDBRANCH   1  13
TORSDOF 12
ENDMDL
MODEL 2
REMARK VINA RESULT:      -4.7      1.340      2.003
REMARK  12 active torsions:
REMARK  status: ('A' for Active; 'I' for Inactive)
REMARK    1  A    between atoms: C_2  and  C_3 
REMARK    2  A    between atoms: C_3  and  C_4 
REMARK    3  A    between atoms: C_4  and  S_6 
REMARK    4  A    between atoms: S_6  and  C_8 
REMARK    5  A    between atoms: C_8  and  C_9 
REMARK    6  A    between atoms: C_9  and  C_10 
REMARK    7  A    between atoms: C_10  and  S_12 
REMARK    8  A    between atoms: C_10  and  C_11 
REMARK    9  A    between atoms: C_11  and  C_13 
REMARK   10  A    between atoms: C_13  and  C_14 
REMARK   11  A    between atoms: C_14  and  C_15 
REMARK   12  A    between atoms: C_15  and  C_16 
REMARK       I    between atoms: C_16  and  N_18 
ROOT
ATOM      1  C   UNL d   1      34.560 -29.320 -23.100  0.00  0.00     0.045 C 
ENDROOT
BRANCH   1   2
ATOM      2  C   UNL d   1      33.515 -30.443 -22.962  0.00  0.00     0.025 C 
BRANCH   2   3
ATOM      3  C   UNL d   1      33.247 -31.209 -24.257  0.00  0.00     0.083 C 
BRANCH   3   4
ATOM      4  S   UNL d   1      33.832 -32.919 -24.122  0.00  0.00    -0.092 SA
BRANCH   4   5
ATOM      5  C   UNL d   1      35.204 -32.816 -25.234  0.00  0.00     0.189 C 
ATOM      6  O   UNL d   1      36.334 -32.545 -24.845  0.00  0.00    -0.285 OA
BRANCH   5   7
ATOM      7  C   UNL d   1      34.848 -33.126 -26.679  0.00  0.00     0.062 C 
ATOM      8  C   UNL d   1      34.943 -31.832 -27.486  0.00  0.00     0.018 C 
BRANCH   7   9
ATOM      9  C   UNL d   1      33.441 -33.731 -26.800  0.00  0.00     0.008 C 
ATOM     10  C   UNL d   1      32.544 -32.976 -27.773  0.00  0.00     0.006 C 
ENDBRANCH   7   9
ENDBRANCH   5   7
ENDBRANCH   4   5
ENDBRANCH   3   4
ENDBRANCH   2   3
ENDBRANCH   1   2
BRANCH   1  11
ATOM     11  S   UNL d   1      33.801 -27.656 -22.976  0.00  0.00    -0.177 SA
ATOM     12  H   UNL d   1      33.241 -27.810 -21.768  0.00  0.00     0.102 HD
ENDBRANCH   1  11
BRANCH   1  13
ATOM     13  C   UNL d   1      35.727 -29.432 -22.101  0.00  0.00     0.015 C 
BRANCH  13  14
ATOM     14  C   UNL d   1      35.960 -30.859 -21.577  0.00  0.00     0.002 C 
BRANCH  14  15
ATOM     15  C   UNL d   1      35.923 -30.987 -20.051  0.00  0.00     0.009 C 
BRANCH  15  16
ATOM     16  C   UNL d   1      34.768 -31.865 -19.576  0.00  0.00     0.102 C 
BRANCH  16  17
ATOM     17  C   UNL d   1      33.551 -31.068 -19.169  0.00  0.00     0.215 C 
ATOM     18  N   UNL d   1      32.376 -31.605 -19.611  0.00  0.00    -0.370 N 
ATOM     19  H   UNL d   1      32.334 -32.406 -20.220  0.00  0.00     0.159 HD
ATOM     20  H   UNL d   1      31.524 -31.094 -19.417  0.00  0.00     0.159 HD
ATOM     21  O   UNL d   1      33.576 -30.032 -18.518  0.00  0.00    -0.274 OA
ENDBRANCH  16  17
ENDBRANCH  15  16
ENDBRANCH  14  15
ENDBRANCH  13  14
ENDBRANCH   1  13
TORSDOF 12
ENDMDL
MODEL 3
REMARK VINA RESULT:      -4.1      2.942      5.742
REMARK  12 active torsions:
REMARK  status: ('A' for Active; 'I' for Inactive)
REMARK    1  A    between atoms: C_2  and  C_3 
REMARK    2  A    between atoms: C_3  and  C_4 
REMARK    3  A    between atoms: C_4  and  S_6 
REMARK    4  A    between atoms: S_6  and  C_8 
REMARK    5  A    between atoms: C_8  and  C_9 
REMARK    6  A    between atoms: C_9  and  C_10 
REMARK    7  A    between atoms: C_10  and  S_12 
REMARK    8  A    between atoms: C_10  and  C_11 
REMARK    9  A    between atoms: C_11  and  C_13 
REMARK   10  A    between atoms: C_13  and  C_14 
REMARK   11  A    between atoms: C_14  and  C_15 
REMARK   12  A    between atoms: C_15  and  C_16 
REMARK       I    between atoms: C_16  and  N_18 
ROOT
ATOM      1  C   UNL d   1      35.760 -30.923 -21.785  0.00  0.00     0.045 C 
ENDROOT
BRANCH   1   2
ATOM      2  C   UNL d   1      35.220 -29.541 -22.200  0.00  0.00     0.025 C 
BRANCH   2   3
ATOM      3  C   UNL d   1      34.346 -28.870 -21.141  0.00  0.00     0.083 C 
BRANCH   3   4
ATOM      4  S   UNL d   1      32.700 -28.506 -21.807  0.00  0.00    -0.092 SA
BRANCH   4   5
ATOM      5  C   UNL d   1      32.073 -30.159 -21.870  0.00  0.00     0.189 C 
ATOM      6  O   UNL d   1      32.080 -30.893 -20.889  0.00  0.00    -0.285 OA
BRANCH   5   7
ATOM      7  C   UNL d   1      31.504 -30.548 -23.226  0.00  0.00     0.062 C 
ATOM      8  C   UNL d   1      30.200 -29.780 -23.438  0.00  0.00     0.018 C 
BRANCH   7   9
ATOM      9  C   UNL d   1      31.258 -32.061 -23.326  0.00  0.00     0.008 C 
ATOM     10  C   UNL d   1      30.961 -32.529 -24.745  0.00  0.00     0.006 C 
ENDBRANCH   7   9
ENDBRANCH   5   7
ENDBRANCH   4   5
ENDBRANCH   3   4
ENDBRANCH   2   3
ENDBRANCH   1   2
BRANCH   1  11
ATOM     11  S   UNL d   1      35.655 -31.186 -19.974  0.00  0.00    -0.177 SA
ATOM     12  H   UNL d   1      36.882 -31.696 -19.800  0.00  0.00     0.102 HD
ENDBRANCH   1  11
BRANCH   1  13
ATOM     13  C   UNL d   1      35.087 -32.099 -22.518  0.00  0.00     0.015 C 
BRANCH  13  14
ATOM     14  C   UNL d   1      34.909 -31.867 -24.027  0.00  0.00     0.002 C 
BRANCH  14  15
ATOM     15  C   UNL d   1      36.185 -32.068 -24.853  0.00  0.00     0.009 C 
BRANCH  15  16
ATOM     16  C   UNL d   1      36.723 -30.751 -25.408  0.00  0.00     0.102 C 
BRANCH  16  17
ATOM     17  C   UNL d   1      36.253 -30.468 -26.815  0.00  0.00     0.215 C 
ATOM     18  N   UNL d   1      36.737 -29.299 -27.325  0.00  0.00    -0.370 N 
ATOM     19  H   UNL d   1      37.285 -28.649 -26.784  0.00  0.00     0.159 HD
ATOM     20  H   UNL d   1      36.422 -29.021 -28.246  0.00  0.00     0.159 HD
ATOM     21  O   UNL d   1      35.502 -31.186 -27.462  0.00  0.00    -0.274 OA
ENDBRANCH  16  17
ENDBRANCH  15  16
ENDBRANCH  14  15
ENDBRANCH  13  14
ENDBRANCH   1  13
TORSDOF 12
ENDMDL
MODEL 4
REMARK VINA RESULT:      -3.9      3.251      4.532
REMARK  12 active torsions:
REMARK  status: ('A' for Active; 'I' for Inactive)
REMARK    1  A    between atoms: C_2  and  C_3 
REMARK    2  A    between atoms: C_3  and  C_4 
REMARK    3  A    between atoms: C_4  and  S_6 
REMARK    4  A    between atoms: S_6  and  C_8 
REMARK    5  A    between atoms: C_8  and  C_9 
REMARK    6  A    between atoms: C_9  and  C_10 
REMARK    7  A    between atoms: C_10  and  S_12 
REMARK    8  A    between atoms: C_10  and  C_11 
REMARK    9  A    between atoms: C_11  and  C_13 
REMARK   10  A    between atoms: C_13  and  C_14 
REMARK   11  A    between atoms: C_14  and  C_15 
REMARK   12  A    between atoms: C_15  and  C_16 
REMARK       I    between atoms: C_16  and  N_18 
ROOT
ATOM      1  C   UNL d   1      34.808 -31.630 -21.616  0.00  0.00     0.045 C 
ENDROOT
BRANCH   1   2
ATOM      2  C   UNL d   1      35.991 -30.699 -21.946  0.00  0.00     0.025 C 
BRANCH   2   3
ATOM      3  C   UNL d   1      35.791 -29.859 -23.206  0.00  0.00     0.083 C 
BRANCH   3   4
ATOM      4  S   UNL d   1      37.234 -29.985 -24.295  0.00  0.00    -0.092 SA
BRANCH   4   5
ATOM      5  C   UNL d   1      36.677 -31.320 -25.313  0.00  0.00     0.189 C 
ATOM      6  O   UNL d   1      36.573 -32.463 -24.884  0.00  0.00    -0.285 OA
BRANCH   5   7
ATOM      7  C   UNL d   1      36.316 -30.902 -26.731  0.00  0.00     0.062 C 
ATOM      8  C   UNL d   1      37.177 -29.699 -27.111  0.00  0.00     0.018 C 
BRANCH   7   9
ATOM      9  C   UNL d   1      34.825 -30.556 -26.858  0.00  0.00     0.008 C 
ATOM     10  C   UNL d   1      34.022 -31.620 -27.596  0.00  0.00     0.006 C 
ENDBRANCH   7   9
ENDBRANCH   5   7
ENDBRANCH   4   5
ENDBRANCH   3   4
ENDBRANCH   2   3
ENDBRANCH   1   2
BRANCH   1  11
ATOM     11  S   UNL d   1      34.482 -31.714 -19.815  0.00  0.00    -0.177 SA
ATOM     12  H   UNL d   1      34.585 -33.044 -19.681  0.00  0.00     0.102 HD
ENDBRANCH   1  11
BRANCH   1  13
ATOM     13  C   UNL d   1      33.508 -31.270 -22.361  0.00  0.00     0.015 C 
BRANCH  13  14
ATOM     14  C   UNL d   1      33.174 -32.225 -23.518  0.00  0.00     0.002 C 
BRANCH  14  15
ATOM     15  C   UNL d   1      32.120 -31.692 -24.495  0.00  0.00     0.009 C 
BRANCH  15  16
ATOM     16  C   UNL d   1      31.420 -32.816 -25.255  0.00  0.00     0.102 C 
BRANCH  16  17
ATOM     17  C   UNL d   1      29.919 -32.653 -25.297  0.00  0.00     0.215 C 
ATOM     18  N   UNL d   1      29.318 -33.399 -26.270  0.00  0.00    -0.370 N 
ATOM     19  H   UNL d   1      29.835 -33.936 -26.947  0.00  0.00     0.159 HD
ATOM     20  H   UNL d   1      28.318 -33.299 -26.388  0.00  0.00     0.159 HD
ATOM     21  O   UNL d   1      29.270 -31.926 -24.556  0.00  0.00    -0.274 OA
ENDBRANCH  16  17
ENDBRANCH  15  16
ENDBRANCH  14  15
ENDBRANCH  13  14
ENDBRANCH   1  13
TORSDOF 12
ENDMDL
MODEL 5
REMARK VINA RESULT:      -3.7      2.352      3.255
REMARK  12 active torsions:
REMARK  status: ('A' for Active; 'I' for Inactive)
REMARK    1  A    between atoms: C_2  and  C_3 
REMARK    2  A    between atoms: C_3  and  C_4 
REMARK    3  A    between atoms: C_4  and  S_6 
REMARK    4  A    between atoms: S_6  and  C_8 
REMARK    5  A    between atoms: C_8  and  C_9 
REMARK    6  A    between atoms: C_9  and  C_10 
REMARK    7  A    between atoms: C_10  and  S_12 
REMARK    8  A    between atoms: C_10  and  C_11 
REMARK    9  A    between atoms: C_11  and  C_13 
REMARK   10  A    between atoms: C_13  and  C_14 
REMARK   11  A    between atoms: C_14  and  C_15 
REMARK   12  A    between atoms: C_15  and  C_16 
REMARK       I    between atoms: C_16  and  N_18 
ROOT
ATOM      1  C   UNL d   1      32.913 -28.085 -22.021  0.00  0.00     0.045 C 
ENDROOT
BRANCH   1   2
ATOM      2  C   UNL d   1      33.682 -29.342 -22.473  0.00  0.00     0.025 C 
BRANCH   2   3
ATOM      3  C   UNL d   1      34.808 -29.060 -23.467  0.00  0.00     0.083 C 
BRANCH   3   4
ATOM      4  S   UNL d   1      35.606 -30.603 -23.984  0.00  0.00    -0.092 SA
BRANCH   4   5
ATOM      5  C   UNL d   1      35.031 -30.647 -25.657  0.00  0.00     0.189 C 
ATOM      6  O   UNL d   1      35.185 -29.701 -26.420  0.00  0.00    -0.285 OA
BRANCH   5   7
ATOM      7  C   UNL d   1      34.377 -31.964 -26.046  0.00  0.00     0.062 C 
ATOM      8  C   UNL d   1      35.146 -33.100 -25.374  0.00  0.00     0.018 C 
BRANCH   7   9
ATOM      9  C   UNL d   1      34.355 -32.158 -27.570  0.00  0.00     0.008 C 
ATOM     10  C   UNL d   1      32.951 -32.126 -28.160  0.00  0.00     0.006 C 
ENDBRANCH   7   9
ENDBRANCH   5   7
ENDBRANCH   4   5
ENDBRANCH   3   4
ENDBRANCH   2   3
ENDBRANCH   1   2
BRANCH   1  11
ATOM     11  S   UNL d   1      32.944 -26.767 -23.294  0.00  0.00    -0.177 SA
ATOM     12  H   UNL d   1      34.269 -26.561 -23.301  0.00  0.00     0.102 HD
ENDBRANCH   1  11
BRANCH   1  13
ATOM     13  C   UNL d   1      31.457 -28.365 -21.602  0.00  0.00     0.015 C 
BRANCH  13  14
ATOM     14  C   UNL d   1      31.052 -29.843 -21.721  0.00  0.00     0.002 C 
BRANCH  14  15
ATOM     15  C   UNL d   1      30.676 -30.506 -20.392  0.00  0.00     0.009 C 
BRANCH  15  16
ATOM     16  C   UNL d   1      31.907 -30.906 -19.581  0.00  0.00     0.102 C 
BRANCH  16  17
ATOM     17  C   UNL d   1      31.963 -30.238 -18.227  0.00  0.00     0.215 C 
ATOM     18  N   UNL d   1      33.201 -29.759 -17.908  0.00  0.00    -0.370 N 
ATOM     19  H   UNL d   1      34.014 -29.914 -18.483  0.00  0.00     0.159 HD
ATOM     20  H   UNL d   1      33.323 -29.344 -16.993  0.00  0.00     0.159 HD
ATOM     21  O   UNL d   1      31.017 -30.127 -17.459  0.00  0.00    -0.274 OA
ENDBRANCH  16  17
ENDBRANCH  15  16
ENDBRANCH  14  15
ENDBRANCH  13  14
ENDBRANCH   1  13
TORSDOF 12
ENDMDL
MODEL 6
REMARK VINA RESULT:      -3.5     25.696     28.393
REMARK  12 active torsions:
REMARK  status: ('A' for Active; 'I' for Inactive)
REMARK    1  A    between atoms: C_2  and  C_3 
REMARK    2  A    between atoms: C_3  and  C_4 
REMARK    3  A    between atoms: C_4  and  S_6 
REMARK    4  A    between atoms: S_6  and  C_8 
REMARK    5  A    between atoms: C_8  and  C_9 
REMARK    6  A    between atoms: C_9  and  C_10 
REMARK    7  A    between atoms: C_10  and  S_12 
REMARK    8  A    between atoms: C_10  and  C_11 
REMARK    9  A    between atoms: C_11  and  C_13 
REMARK   10  A    between atoms: C_13  and  C_14 
REMARK   11  A    between atoms: C_14  and  C_15 
REMARK   12  A    between atoms: C_15  and  C_16 
REMARK       I    between atoms: C_16  and  N_18 
ROOT
ATOM      1  C   UNL d   1      31.746 -15.123   0.712  0.00  0.00     0.045 C 
ENDROOT
BRANCH   1   2
ATOM      2  C   UNL d   1      33.007 -15.904   0.295  0.00  0.00     0.025 C 
BRANCH   2   3
ATOM      3  C   UNL d   1      32.720 -17.294  -0.272  0.00  0.00     0.083 C 
BRANCH   3   4
ATOM      4  S   UNL d   1      34.072 -18.436   0.119  0.00  0.00    -0.092 SA
BRANCH   4   5
ATOM      5  C   UNL d   1      35.218 -17.922  -1.127  0.00  0.00     0.189 C 
ATOM      6  O   UNL d   1      36.406 -17.746  -0.882  0.00  0.00    -0.285 OA
BRANCH   5   7
ATOM      7  C   UNL d   1      34.595 -17.763  -2.505  0.00  0.00     0.062 C 
ATOM      8  C   UNL d   1      35.199 -18.819  -3.430  0.00  0.00     0.018 C 
BRANCH   7   9
ATOM      9  C   UNL d   1      34.828 -16.355  -3.074  0.00  0.00     0.008 C 
ATOM     10  C   UNL d   1      35.920 -16.310  -4.136  0.00  0.00     0.006 C 
ENDBRANCH   7   9
ENDBRANCH   5   7
ENDBRANCH   4   5
ENDBRANCH   3   4
ENDBRANCH   2   3
ENDBRANCH   1   2
BRANCH   1  11
ATOM     11  S   UNL d   1      30.306 -16.229   0.965  0.00  0.00    -0.177 SA
ATOM     12  H   UNL d   1      29.643 -15.912  -0.156  0.00  0.00     0.102 HD
ENDBRANCH   1  11
BRANCH   1  13
ATOM     13  C   UNL d   1      31.946 -14.240   1.958  0.00  0.00     0.015 C 
BRANCH  13  14
ATOM     14  C   UNL d   1      32.980 -14.797   2.951  0.00  0.00     0.002 C 
BRANCH  14  15
ATOM     15  C   UNL d   1      34.233 -13.930   3.113  0.00  0.00     0.009 C 
BRANCH  15  16
ATOM     16  C   UNL d   1      34.191 -12.689   2.224  0.00  0.00     0.102 C 
BRANCH  16  17
ATOM     17  C   UNL d   1      34.493 -11.415   2.977  0.00  0.00     0.215 C 
ATOM     18  N   UNL d   1      33.452 -10.978   3.745  0.00  0.00    -0.370 N 
ATOM     19  H   UNL d   1      32.546 -11.417   3.742  0.00  0.00     0.159 HD
ATOM     20  H   UNL d   1      33.568 -10.102   4.238  0.00  0.00     0.159 HD
ATOM     21  O   UNL d   1      35.549 -10.799   2.921  0.00  0.00    -0.274 OA
ENDBRANCH  16  17
ENDBRANCH  15  16
ENDBRANCH  14  15
ENDBRANCH  13  14
ENDBRANCH   1  13
TORSDOF 12
ENDMDL
MODEL 7
REMARK VINA RESULT:      -3.2      2.840      4.792
REMARK  12 active torsions:
REMARK  status: ('A' for Active; 'I' for Inactive)
REMARK    1  A    between atoms: C_2  and  C_3 
REMARK    2  A    between atoms: C_3  and  C_4 
REMARK    3  A    between atoms: C_4  and  S_6 
REMARK    4  A    between atoms: S_6  and  C_8 
REMARK    5  A    between atoms: C_8  and  C_9 
REMARK    6  A    between atoms: C_9  and  C_10 
REMARK    7  A    between atoms: C_10  and  S_12 
REMARK    8  A    between atoms: C_10  and  C_11 
REMARK    9  A    between atoms: C_11  and  C_13 
REMARK   10  A    between atoms: C_13  and  C_14 
REMARK   11  A    between atoms: C_14  and  C_15 
REMARK   12  A    between atoms: C_15  and  C_16 
REMARK       I    between atoms: C_16  and  N_18 
ROOT
ATOM      1  C   UNL d   1      31.377 -29.393 -22.116  0.00  0.00     0.045 C 
ENDROOT
BRANCH   1   2
ATOM      2  C   UNL d   1      32.683 -28.820 -21.532  0.00  0.00     0.025 C 
BRANCH   2   3
ATOM      3  C   UNL d   1      33.760 -28.535 -22.577  0.00  0.00     0.083 C 
BRANCH   3   4
ATOM      4  S   UNL d   1      35.409 -28.875 -21.906  0.00  0.00    -0.092 SA
BRANCH   4   5
ATOM      5  C   UNL d   1      35.461 -30.617 -22.209  0.00  0.00     0.189 C 
ATOM      6  O   UNL d   1      34.928 -31.422 -21.455  0.00  0.00    -0.285 OA
BRANCH   5   7
ATOM      7  C   UNL d   1      36.187 -30.995 -23.491  0.00  0.00     0.062 C 
ATOM      8  C   UNL d   1      37.180 -29.884 -23.827  0.00  0.00     0.018 C 
BRANCH   7   9
ATOM      9  C   UNL d   1      35.208 -31.210 -24.656  0.00  0.00     0.008 C 
ATOM     10  C   UNL d   1      35.741 -30.703 -25.990  0.00  0.00     0.006 C 
ENDBRANCH   7   9
ENDBRANCH   5   7
ENDBRANCH   4   5
ENDBRANCH   3   4
ENDBRANCH   2   3
ENDBRANCH   1   2
BRANCH   1  11
ATOM     11  S   UNL d   1      31.091 -28.834 -23.838  0.00  0.00    -0.177 SA
ATOM     12  H   UNL d   1      30.892 -30.043 -24.382  0.00  0.00     0.102 HD
ENDBRANCH   1  11
BRANCH   1  13
ATOM     13  C   UNL d   1      31.290 -30.930 -22.050  0.00  0.00     0.015 C 
BRANCH  13  14
ATOM     14  C   UNL d   1      31.895 -31.637 -23.275  0.00  0.00     0.002 C 
BRANCH  14  15
ATOM     15  C   UNL d   1      30.973 -32.674 -23.926  0.00  0.00     0.009 C 
BRANCH  15  16
ATOM     16  C   UNL d   1      30.648 -32.323 -25.376  0.00  0.00     0.102 C 
BRANCH  16  17
ATOM     17  C   UNL d   1      31.882 -32.121 -26.224  0.00  0.00     0.215 C 
ATOM     18  N   UNL d   1      32.636 -33.251 -26.363  0.00  0.00    -0.370 N 
ATOM     19  H   UNL d   1      32.434 -34.109 -25.876  0.00  0.00     0.159 HD
ATOM     20  H   UNL d   1      33.504 -33.175 -26.877  0.00  0.00     0.159 HD
ATOM     21  O   UNL d   1      32.212 -31.064 -26.744  0.00  0.00    -0.274 OA
ENDBRANCH  16  17
ENDBRANCH  15  16
ENDBRANCH  14  15
ENDBRANCH  13  14
ENDBRANCH   1  13
TORSDOF 12
ENDMDL
MODEL 8
REMARK VINA RESULT:      -3.1     21.636     23.271
REMARK  12 active torsions:
REMARK  status: ('A' for Active; 'I' for Inactive)
REMARK    1  A    between atoms: C_2  and  C_3 
REMARK    2  A    between atoms: C_3  and  C_4 
REMARK    3  A    between atoms: C_4  and  S_6 
REMARK    4  A    between atoms: S_6  and  C_8 
REMARK    5  A    between atoms: C_8  and  C_9 
REMARK    6  A    between atoms: C_9  and  C_10 
REMARK    7  A    between atoms: C_10  and  S_12 
REMARK    8  A    between atoms: C_10  and  C_11 
REMARK    9  A    between atoms: C_11  and  C_13 
REMARK   10  A    between atoms: C_13  and  C_14 
REMARK   11  A    between atoms: C_14  and  C_15 
REMARK   12  A    between atoms: C_15  and  C_16 
REMARK       I    between atoms: C_16  and  N_18 
ROOT
ATOM      1  C   UNL d   1      32.830 -34.328   0.808  0.00  0.00     0.045 C 
ENDROOT
BRANCH   1   2
ATOM      2  C   UNL d   1      33.650 -33.081   1.188  0.00  0.00     0.025 C 
BRANCH   2   3
ATOM      3  C   UNL d   1      33.653 -31.988   0.120  0.00  0.00     0.083 C 
BRANCH   3   4
ATOM      4  S   UNL d   1      33.740 -30.346   0.884  0.00  0.00    -0.092 SA
BRANCH   4   5
ATOM      5  C   UNL d   1      32.577 -29.512  -0.156  0.00  0.00     0.189 C 
ATOM      6  O   UNL d   1      32.174 -28.383   0.098  0.00  0.00    -0.285 OA
BRANCH   5   7
ATOM      7  C   UNL d   1      32.171 -30.310  -1.386  0.00  0.00     0.062 C 
ATOM      8  C   UNL d   1      32.878 -29.712  -2.601  0.00  0.00     0.018 C 
BRANCH   7   9
ATOM      9  C   UNL d   1      30.649 -30.299  -1.592  0.00  0.00     0.008 C 
ATOM     10  C   UNL d   1      30.192 -29.293  -2.642  0.00  0.00     0.006 C 
ENDBRANCH   7   9
ENDBRANCH   5   7
ENDBRANCH   4   5
ENDBRANCH   3   4
ENDBRANCH   2   3
ENDBRANCH   1   2
BRANCH   1  11
ATOM     11  S   UNL d   1      32.134 -35.168   2.281  0.00  0.00    -0.177 SA
ATOM     12  H   UNL d   1      33.099 -36.086   2.431  0.00  0.00     0.102 HD
ENDBRANCH   1  11
BRANCH   1  13
ATOM     13  C   UNL d   1      31.705 -34.048  -0.207  0.00  0.00     0.015 C 
BRANCH  13  14
ATOM     14  C   UNL d   1      31.859 -34.815  -1.530  0.00  0.00     0.002 C 
BRANCH  14  15
ATOM     15  C   UNL d   1      31.188 -36.193  -1.545  0.00  0.00     0.009 C 
BRANCH  15  16
ATOM     16  C   UNL d   1      30.090 -36.285  -2.602  0.00  0.00     0.102 C 
BRANCH  16  17
ATOM     17  C   UNL d   1      29.112 -37.406  -2.338  0.00  0.00     0.215 C 
ATOM     18  N   UNL d   1      29.703 -38.633  -2.244  0.00  0.00    -0.370 N 
ATOM     19  H   UNL d   1      30.683 -38.784  -2.419  0.00  0.00     0.159 HD
ATOM     20  H   UNL d   1      29.100 -39.436  -2.119  0.00  0.00     0.159 HD
ATOM     21  O   UNL d   1      27.901 -37.269  -2.226  0.00  0.00    -0.274 OA
ENDBRANCH  16  17
ENDBRANCH  15  16
ENDBRANCH  14  15
ENDBRANCH  13  14
ENDBRANCH   1  13
TORSDOF 12
ENDMDL
MODEL 9
REMARK VINA RESULT:      -3.1      4.248      6.179
REMARK  12 active torsions:
REMARK  status: ('A' for Active; 'I' for Inactive)
REMARK    1  A    between atoms: C_2  and  C_3 
REMARK    2  A    between atoms: C_3  and  C_4 
REMARK    3  A    between atoms: C_4  and  S_6 
REMARK    4  A    between atoms: S_6  and  C_8 
REMARK    5  A    between atoms: C_8  and  C_9 
REMARK    6  A    between atoms: C_9  and  C_10 
REMARK    7  A    between atoms: C_10  and  S_12 
REMARK    8  A    between atoms: C_10  and  C_11 
REMARK    9  A    between atoms: C_11  and  C_13 
REMARK   10  A    between atoms: C_13  and  C_14 
REMARK   11  A    between atoms: C_14  and  C_15 
REMARK   12  A    between atoms: C_15  and  C_16 
REMARK       I    between atoms: C_16  and  N_18 
ROOT
ATOM      1  C   UNL d   1      31.668 -29.100 -20.250  0.00  0.00     0.045 C 
ENDROOT
BRANCH   1   2
ATOM      2  C   UNL d   1      30.832 -27.841 -20.552  0.00  0.00     0.025 C 
BRANCH   2   3
ATOM      3  C   UNL d   1      31.517 -26.849 -21.490  0.00  0.00     0.083 C 
BRANCH   3   4
ATOM      4  S   UNL d   1      31.011 -25.151 -21.106  0.00  0.00    -0.092 SA
BRANCH   4   5
ATOM      5  C   UNL d   1      32.011 -24.305 -22.296  0.00  0.00     0.189 C 
ATOM      6  O   UNL d   1      32.063 -23.082 -22.347  0.00  0.00    -0.285 OA
BRANCH   5   7
ATOM      7  C   UNL d   1      32.807 -25.234 -23.200  0.00  0.00     0.062 C 
ATOM      8  C   UNL d   1      34.246 -24.725 -23.264  0.00  0.00     0.018 C 
BRANCH   7   9
ATOM      9  C   UNL d   1      32.202 -25.310 -24.610  0.00  0.00     0.008 C 
ATOM     10  C   UNL d   1      33.137 -24.789 -25.694  0.00  0.00     0.006 C 
ENDBRANCH   7   9
ENDBRANCH   5   7
ENDBRANCH   4   5
ENDBRANCH   3   4
ENDBRANCH   2   3
ENDBRANCH   1   2
BRANCH   1  11
ATOM     11  S   UNL d   1      30.831 -30.631 -20.812  0.00  0.00    -0.177 SA
ATOM     12  H   UNL d   1      31.632 -31.506 -20.188  0.00  0.00     0.102 HD
ENDBRANCH   1  11
BRANCH   1  13
ATOM     13  C   UNL d   1      33.096 -29.050 -20.825  0.00  0.00     0.015 C 
BRANCH  13  14
ATOM     14  C   UNL d   1      33.895 -30.346 -20.610  0.00  0.00     0.002 C 
BRANCH  14  15
ATOM     15  C   UNL d   1      35.336 -30.296 -21.130  0.00  0.00     0.009 C 
BRANCH  15  16
ATOM     16  C   UNL d   1      35.590 -29.066 -21.998  0.00  0.00     0.102 C 
BRANCH  16  17
ATOM     17  C   UNL d   1      36.076 -29.415 -23.385  0.00  0.00     0.215 C 
ATOM     18  N   UNL d   1      35.095 -29.363 -24.333  0.00  0.00    -0.370 N 
ATOM     19  H   UNL d   1      34.127 -29.193 -24.113  0.00  0.00     0.159 HD
ATOM     20  H   UNL d   1      35.339 -29.635 -25.277  0.00  0.00     0.159 HD
ATOM     21  O   UNL d   1      37.224 -29.730 -23.669  0.00  0.00    -0.274 OA
ENDBRANCH  16  17
ENDBRANCH  15  16
ENDBRANCH  14  15
ENDBRANCH  13  14
ENDBRANCH   1  13
TORSDOF 12
ENDMDL
