MODEL 1
REMARK VINA RESULT:      -4.5      0.000      0.000
REMARK  2 active torsions:
REMARK  status: ('A' for Active; 'I' for Inactive)
REMARK    1  A    between atoms: C_2  and  O_1 
REMARK    2  A    between atoms: C_3  and  C_2 
ROOT
ATOM      1  C   UNL d   1     -15.355  23.756  18.338  0.00  0.00     0.213 C 
ATOM      2  O   UNL d   1     -14.603  23.238  19.137  0.00  0.00    -0.644 OA
ENDROOT
BRANCH   1   3
ATOM      3  C   UNL d   1     -16.103  25.056  18.613  0.00  0.00     0.218 C 
ATOM      4  C   UNL d   1     -15.910  25.675  19.961  0.00  0.00     0.103 C 
ATOM      5  O   UNL d   1     -16.811  25.507  17.717  0.00  0.00    -0.286 OA
ENDBRANCH   1   3
BRANCH   1   6
ATOM      6  O   UNL d   1     -15.651  23.292  17.109  0.00  0.00    -0.771 OA
ATOM      7  H   UNL d   1     -14.866  23.408  16.523  0.00  0.00     0.168 HD
ENDBRANCH   1   6
TORSDOF 2
ENDMDL
MODEL 2
REMARK VINA RESULT:      -4.4     15.747     16.630
REMARK  2 active torsions:
REMARK  status: ('A' for Active; 'I' for Inactive)
REMARK    1  A    between atoms: C_2  and  O_1 
REMARK    2  A    between atoms: C_3  and  C_2 
ROOT
ATOM      1  C   UNL d   1      -5.271  22.147   5.084  0.00  0.00     0.213 C 
ATOM      2  O   UNL d   1      -4.852  23.157   4.560  0.00  0.00    -0.644 OA
ENDROOT
BRANCH   1   3
ATOM      3  C   UNL d   1      -5.455  21.998   6.591  0.00  0.00     0.218 C 
ATOM      4  C   UNL d   1      -6.412  20.946   7.054  0.00  0.00     0.103 C 
ATOM      5  O   UNL d   1      -4.811  22.748   7.320  0.00  0.00    -0.286 OA
ENDBRANCH   1   3
BRANCH   1   6
ATOM      6  O   UNL d   1      -5.636  21.016   4.451  0.00  0.00    -0.771 OA
ATOM      7  H   UNL d   1      -6.458  20.664   4.868  0.00  0.00     0.168 HD
ENDBRANCH   1   6
TORSDOF 2
ENDMDL
MODEL 3
REMARK VINA RESULT:      -4.3     15.311     16.208
REMARK  2 active torsions:
REMARK  status: ('A' for Active; 'I' for Inactive)
REMARK    1  A    between atoms: C_2  and  O_1 
REMARK    2  A    between atoms: C_3  and  C_2 
ROOT
ATOM      1  C   UNL d   1      -5.940  22.044   6.906  0.00  0.00     0.213 C 
ATOM      2  O   UNL d   1      -5.277  22.608   7.751  0.00  0.00    -0.644 OA
ENDROOT
BRANCH   1   3
ATOM      3  C   UNL d   1      -5.529  21.951   5.441  0.00  0.00     0.218 C 
ATOM      4  C   UNL d   1      -4.886  23.161   4.841  0.00  0.00     0.103 C 
ATOM      5  O   UNL d   1      -5.752  20.896   4.852  0.00  0.00    -0.286 OA
ENDBRANCH   1   3
BRANCH   1   6
ATOM      6  O   UNL d   1      -7.117  21.420   7.107  0.00  0.00    -0.771 OA
ATOM      7  H   UNL d   1      -7.497  21.161   6.233  0.00  0.00     0.168 HD
ENDBRANCH   1   6
TORSDOF 2
ENDMDL
MODEL 4
REMARK VINA RESULT:      -4.3      1.202      2.050
REMARK  2 active torsions:
REMARK  status: ('A' for Active; 'I' for Inactive)
REMARK    1  A    between atoms: C_2  and  O_1 
REMARK    2  A    between atoms: C_3  and  C_2 
ROOT
ATOM      1  C   UNL d   1     -15.249  23.944  18.671  0.00  0.00     0.213 C 
ATOM      2  O   UNL d   1     -15.764  23.847  17.577  0.00  0.00    -0.644 OA
ENDROOT
BRANCH   1   3
ATOM      3  C   UNL d   1     -15.503  25.112  19.618  0.00  0.00     0.218 C 
ATOM      4  C   UNL d   1     -16.748  25.910  19.388  0.00  0.00     0.103 C 
ATOM      5  O   UNL d   1     -14.675  25.321  20.500  0.00  0.00    -0.286 OA
ENDBRANCH   1   3
BRANCH   1   6
ATOM      6  O   UNL d   1     -14.390  23.066  19.225  0.00  0.00    -0.771 OA
ATOM      7  H   UNL d   1     -14.612  22.957  20.181  0.00  0.00     0.168 HD
ENDBRANCH   1   6
TORSDOF 2
ENDMDL
MODEL 5
REMARK VINA RESULT:      -4.2     15.121     15.606
REMARK  2 active torsions:
REMARK  status: ('A' for Active; 'I' for Inactive)
REMARK    1  A    between atoms: C_2  and  O_1 
REMARK    2  A    between atoms: C_3  and  C_2 
ROOT
ATOM      1  C   UNL d   1      -7.051  21.227   6.356  0.00  0.00     0.213 C 
ATOM      2  O   UNL d   1      -7.893  21.515   5.532  0.00  0.00    -0.644 OA
ENDROOT
BRANCH   1   3
ATOM      3  C   UNL d   1      -5.852  22.113   6.676  0.00  0.00     0.218 C 
ATOM      4  C   UNL d   1      -4.974  22.501   5.528  0.00  0.00     0.103 C 
ATOM      5  O   UNL d   1      -5.685  22.446   7.845  0.00  0.00    -0.286 OA
ENDBRANCH   1   3
BRANCH   1   6
ATOM      6  O   UNL d   1      -7.028  20.112   7.111  0.00  0.00    -0.771 OA
ATOM      7  H   UNL d   1      -6.809  20.357   8.042  0.00  0.00     0.168 HD
ENDBRANCH   1   6
TORSDOF 2
ENDMDL
MODEL 6
REMARK VINA RESULT:      -4.0     18.636     19.115
REMARK  2 active torsions:
REMARK  status: ('A' for Active; 'I' for Inactive)
REMARK    1  A    between atoms: C_2  and  O_1 
REMARK    2  A    between atoms: C_3  and  C_2 
ROOT
ATOM      1  C   UNL d   1       1.198  25.768  10.376  0.00  0.00     0.213 C 
ATOM      2  O   UNL d   1       1.202  24.606  10.029  0.00  0.00    -0.644 OA
ENDROOT
BRANCH   1   3
ATOM      3  C   UNL d   1       0.968  26.930   9.415  0.00  0.00     0.218 C 
ATOM      4  C   UNL d   1       2.171  27.474   8.712  0.00  0.00     0.103 C 
ATOM      5  O   UNL d   1      -0.182  27.341   9.283  0.00  0.00    -0.286 OA
ENDBRANCH   1   3
BRANCH   1   6
ATOM      6  O   UNL d   1       1.390  26.223  11.629  0.00  0.00    -0.771 OA
ATOM      7  H   UNL d   1       1.394  27.210  11.616  0.00  0.00     0.168 HD
ENDBRANCH   1   6
TORSDOF 2
ENDMDL
MODEL 7
REMARK VINA RESULT:      -4.0     24.909     25.665
REMARK  2 active torsions:
REMARK  status: ('A' for Active; 'I' for Inactive)
REMARK    1  A    between atoms: C_2  and  O_1 
REMARK    2  A    between atoms: C_3  and  C_2 
ROOT
ATOM      1  C   UNL d   1      -2.417   2.922  18.317  0.00  0.00     0.213 C 
ATOM      2  O   UNL d   1      -2.301   4.060  18.719  0.00  0.00    -0.644 OA
ENDROOT
BRANCH   1   3
ATOM      3  C   UNL d   1      -3.262   1.866  19.021  0.00  0.00     0.218 C 
ATOM      4  C   UNL d   1      -2.606   1.102  20.127  0.00  0.00     0.103 C 
ATOM      5  O   UNL d   1      -4.418   1.711  18.635  0.00  0.00    -0.286 OA
ENDBRANCH   1   3
BRANCH   1   6
ATOM      6  O   UNL d   1      -1.839   2.406  17.215  0.00  0.00    -0.771 OA
ATOM      7  H   UNL d   1      -0.973   2.854  17.065  0.00  0.00     0.168 HD
ENDBRANCH   1   6
TORSDOF 2
ENDMDL
MODEL 8
REMARK VINA RESULT:      -4.0     25.443     25.868
REMARK  2 active torsions:
REMARK  status: ('A' for Active; 'I' for Inactive)
REMARK    1  A    between atoms: C_2  and  O_1 
REMARK    2  A    between atoms: C_3  and  C_2 
ROOT
ATOM      1  C   UNL d   1      -2.978   1.743  19.425  0.00  0.00     0.213 C 
ATOM      2  O   UNL d   1      -3.887   1.059  19.005  0.00  0.00    -0.644 OA
ENDROOT
BRANCH   1   3
ATOM      3  C   UNL d   1      -2.199   2.726  18.558  0.00  0.00     0.218 C 
ATOM      4  C   UNL d   1      -1.288   3.678  19.268  0.00  0.00     0.103 C 
ATOM      5  O   UNL d   1      -2.370   2.675  17.343  0.00  0.00    -0.286 OA
ENDBRANCH   1   3
BRANCH   1   6
ATOM      6  O   UNL d   1      -2.512   1.756  20.688  0.00  0.00    -0.771 OA
ATOM      7  H   UNL d   1      -1.569   2.048  20.681  0.00  0.00     0.168 HD
ENDBRANCH   1   6
TORSDOF 2
ENDMDL
MODEL 9
REMARK VINA RESULT:      -3.9     22.343     23.581
REMARK  2 active torsions:
REMARK  status: ('A' for Active; 'I' for Inactive)
REMARK    1  A    between atoms: C_2  and  O_1 
REMARK    2  A    between atoms: C_3  and  C_2 
ROOT
ATOM      1  C   UNL d   1     -13.445   7.067   3.939  0.00  0.00     0.213 C 
ATOM      2  O   UNL d   1     -12.349   7.539   3.724  0.00  0.00    -0.644 OA
ENDROOT
BRANCH   1   3
ATOM      3  C   UNL d   1     -14.061   5.956   3.094  0.00  0.00     0.218 C 
ATOM      4  C   UNL d   1     -13.170   5.301   2.087  0.00  0.00     0.103 C 
ATOM      5  O   UNL d   1     -15.239   5.675   3.294  0.00  0.00    -0.286 OA
ENDBRANCH   1   3
BRANCH   1   6
ATOM      6  O   UNL d   1     -14.284   7.427   4.929  0.00  0.00    -0.771 OA
ATOM      7  H   UNL d   1     -14.816   6.641   5.202  0.00  0.00     0.168 HD
ENDBRANCH   1   6
TORSDOF 2
ENDMDL
