MODEL 1
REMARK VINA RESULT:      -2.3      0.000      0.000
REMARK  6 active torsions:
REMARK  status: ('A' for Active; 'I' for Inactive)
REMARK    1  A    between atoms: O_1  and  C_2 
REMARK    2  A    between atoms: C_2  and  C_3 
REMARK    3  A    between atoms: C_3  and  C_5 
REMARK    4  A    between atoms: C_5  and  C_6 
REMARK    5  A    between atoms: C_6  and  C_7 
REMARK    6  A    between atoms: C_7  and  O_10 
ROOT
ATOM      1  C   UNL d   1     -14.348 -38.671 -21.601  0.00  0.00     0.101 C 
ENDROOT
BRANCH   1   2
ATOM      2  C   UNL d   1     -14.393 -39.819 -20.596  0.00  0.00     0.118 C 
BRANCH   2   3
ATOM      3  C   UNL d   1     -15.356 -39.518 -19.473  0.00  0.00     0.139 C 
ATOM      4  O   UNL d   1     -16.554 -39.749 -19.501  0.00  0.00    -0.650 OA
BRANCH   3   5
ATOM      5  O   UNL d   1     -14.752 -38.955 -18.404  0.00  0.00    -0.776 OA
ATOM      6  H   UNL d   1     -13.788 -39.100 -18.360  0.00  0.00     0.167 HD
ENDBRANCH   3   5
ENDBRANCH   2   3
ENDBRANCH   1   2
BRANCH   1   7
ATOM      7  C   UNL d   1     -15.304 -38.884 -22.747  0.00  0.00     0.222 C 
ATOM      8  O   UNL d   1     -15.075 -39.532 -23.764  0.00  0.00    -0.286 OA
BRANCH   7   9
ATOM      9  C   UNL d   1     -16.679 -38.228 -22.613  0.00  0.00     0.213 C 
ATOM     10  O   UNL d   1     -16.860 -37.034 -22.744  0.00  0.00    -0.644 OA
BRANCH   9  11
ATOM     11  O   UNL d   1     -17.629 -39.141 -22.341  0.00  0.00    -0.771 OA
ATOM     12  H   UNL d   1     -17.228 -39.911 -21.874  0.00  0.00     0.168 HD
ENDBRANCH   9  11
ENDBRANCH   7   9
ENDBRANCH   1   7
TORSDOF 6
ENDMDL
MODEL 2
REMARK VINA RESULT:      -1.9      1.906      2.826
REMARK  6 active torsions:
REMARK  status: ('A' for Active; 'I' for Inactive)
REMARK    1  A    between atoms: O_1  and  C_2 
REMARK    2  A    between atoms: C_2  and  C_3 
REMARK    3  A    between atoms: C_3  and  C_5 
REMARK    4  A    between atoms: C_5  and  C_6 
REMARK    5  A    between atoms: C_6  and  C_7 
REMARK    6  A    between atoms: C_7  and  O_10 
ROOT
ATOM      1  C   UNL d   1     -15.351 -39.251 -19.930  0.00  0.00     0.101 C 
ENDROOT
BRANCH   1   2
ATOM      2  C   UNL d   1     -15.713 -37.807 -19.594  0.00  0.00     0.118 C 
BRANCH   2   3
ATOM      3  C   UNL d   1     -15.083 -36.848 -20.574  0.00  0.00     0.139 C 
ATOM      4  O   UNL d   1     -13.882 -36.715 -20.745  0.00  0.00    -0.650 OA
BRANCH   3   5
ATOM      5  O   UNL d   1     -15.996 -36.131 -21.264  0.00  0.00    -0.776 OA
ATOM      6  H   UNL d   1     -16.006 -35.178 -21.054  0.00  0.00     0.167 HD
ENDBRANCH   3   5
ENDBRANCH   2   3
ENDBRANCH   1   2
BRANCH   1   7
ATOM      7  C   UNL d   1     -15.880 -39.669 -21.279  0.00  0.00     0.222 C 
ATOM      8  O   UNL d   1     -15.205 -40.070 -22.222  0.00  0.00    -0.286 OA
BRANCH   7   9
ATOM      9  C   UNL d   1     -17.395 -39.581 -21.470  0.00  0.00     0.213 C 
ATOM     10  O   UNL d   1     -18.189 -40.120 -20.727  0.00  0.00    -0.644 OA
BRANCH   9  11
ATOM     11  O   UNL d   1     -17.706 -38.839 -22.549  0.00  0.00    -0.771 OA
ATOM     12  H   UNL d   1     -18.003 -37.943 -22.264  0.00  0.00     0.168 HD
ENDBRANCH   9  11
ENDBRANCH   7   9
ENDBRANCH   1   7
TORSDOF 6
ENDMDL
MODEL 3
REMARK VINA RESULT:      -0.9      2.846      4.236
REMARK  6 active torsions:
REMARK  status: ('A' for Active; 'I' for Inactive)
REMARK    1  A    between atoms: O_1  and  C_2 
REMARK    2  A    between atoms: C_2  and  C_3 
REMARK    3  A    between atoms: C_3  and  C_5 
REMARK    4  A    between atoms: C_5  and  C_6 
REMARK    5  A    between atoms: C_6  and  C_7 
REMARK    6  A    between atoms: C_7  and  O_10 
ROOT
ATOM      1  C   UNL d   1     -16.326 -37.861 -17.695  0.00  0.00     0.101 C 
ENDROOT
BRANCH   1   2
ATOM      2  C   UNL d   1     -17.057 -36.551 -17.976  0.00  0.00     0.118 C 
BRANCH   2   3
ATOM      3  C   UNL d   1     -18.489 -36.806 -18.377  0.00  0.00     0.139 C 
ATOM      4  O   UNL d   1     -18.873 -36.979 -19.522  0.00  0.00    -0.650 OA
BRANCH   3   5
ATOM      5  O   UNL d   1     -19.332 -36.826 -17.320  0.00  0.00    -0.776 OA
ATOM      6  H   UNL d   1     -19.963 -36.081 -17.292  0.00  0.00     0.167 HD
ENDBRANCH   3   5
ENDBRANCH   2   3
ENDBRANCH   1   2
BRANCH   1   7
ATOM      7  C   UNL d   1     -15.658 -38.413 -18.929  0.00  0.00     0.222 C 
ATOM      8  O   UNL d   1     -14.620 -37.994 -19.433  0.00  0.00    -0.286 OA
BRANCH   7   9
ATOM      9  C   UNL d   1     -16.347 -39.604 -19.598  0.00  0.00     0.213 C 
ATOM     10  O   UNL d   1     -17.429 -40.026 -19.245  0.00  0.00    -0.644 OA
BRANCH   9  11
ATOM     11  O   UNL d   1     -15.601 -40.096 -20.603  0.00  0.00    -0.771 OA
ATOM     12  H   UNL d   1     -14.730 -39.634 -20.630  0.00  0.00     0.168 HD
ENDBRANCH   9  11
ENDBRANCH   7   9
ENDBRANCH   1   7
TORSDOF 6
ENDMDL
MODEL 4
REMARK VINA RESULT:      -0.6     24.566     25.476
REMARK  6 active torsions:
REMARK  status: ('A' for Active; 'I' for Inactive)
REMARK    1  A    between atoms: O_1  and  C_2 
REMARK    2  A    between atoms: C_2  and  C_3 
REMARK    3  A    between atoms: C_3  and  C_5 
REMARK    4  A    between atoms: C_5  and  C_6 
REMARK    5  A    between atoms: C_6  and  C_7 
REMARK    6  A    between atoms: C_7  and  O_10 
ROOT
ATOM      1  C   UNL d   1     -37.884 -28.041 -12.742  0.00  0.00     0.101 C 
ENDROOT
BRANCH   1   2
ATOM      2  C   UNL d   1     -37.924 -28.735 -11.384  0.00  0.00     0.118 C 
BRANCH   2   3
ATOM      3  C   UNL d   1     -36.885 -28.161 -10.452  0.00  0.00     0.139 C 
ATOM      4  O   UNL d   1     -35.871 -28.739 -10.097  0.00  0.00    -0.650 OA
BRANCH   3   5
ATOM      5  O   UNL d   1     -37.191 -26.913 -10.033  0.00  0.00    -0.776 OA
ATOM      6  H   UNL d   1     -38.042 -26.571 -10.368  0.00  0.00     0.167 HD
ENDBRANCH   3   5
ENDBRANCH   2   3
ENDBRANCH   1   2
BRANCH   1   7
ATOM      7  C   UNL d   1     -37.130 -28.847 -13.769  0.00  0.00     0.222 C 
ATOM      8  O   UNL d   1     -36.181 -29.592 -13.543  0.00  0.00    -0.286 OA
BRANCH   7   9
ATOM      9  C   UNL d   1     -37.604 -28.716 -15.217  0.00  0.00     0.213 C 
ATOM     10  O   UNL d   1     -37.050 -28.010 -16.035  0.00  0.00    -0.644 OA
BRANCH   9  11
ATOM     11  O   UNL d   1     -38.692 -29.475 -15.444  0.00  0.00    -0.771 OA
ATOM     12  H   UNL d   1     -39.407 -28.925 -15.840  0.00  0.00     0.168 HD
ENDBRANCH   9  11
ENDBRANCH   7   9
ENDBRANCH   1   7
TORSDOF 6
ENDMDL
MODEL 5
REMARK VINA RESULT:      -0.6      3.440      5.092
REMARK  6 active torsions:
REMARK  status: ('A' for Active; 'I' for Inactive)
REMARK    1  A    between atoms: O_1  and  C_2 
REMARK    2  A    between atoms: C_2  and  C_3 
REMARK    3  A    between atoms: C_3  and  C_5 
REMARK    4  A    between atoms: C_5  and  C_6 
REMARK    5  A    between atoms: C_6  and  C_7 
REMARK    6  A    between atoms: C_7  and  O_10 
ROOT
ATOM      1  C   UNL d   1     -15.980 -37.361 -16.616  0.00  0.00     0.101 C 
ENDROOT
BRANCH   1   2
ATOM      2  C   UNL d   1     -16.237 -35.968 -17.182  0.00  0.00     0.118 C 
BRANCH   2   3
ATOM      3  C   UNL d   1     -17.717 -35.686 -17.277  0.00  0.00     0.139 C 
ATOM      4  O   UNL d   1     -18.408 -35.267 -16.363  0.00  0.00    -0.650 OA
BRANCH   3   5
ATOM      5  O   UNL d   1     -18.220 -35.947 -18.504  0.00  0.00    -0.776 OA
ATOM      6  H   UNL d   1     -18.837 -36.703 -18.536  0.00  0.00     0.167 HD
ENDBRANCH   3   5
ENDBRANCH   2   3
ENDBRANCH   1   2
BRANCH   1   7
ATOM      7  C   UNL d   1     -15.200 -38.227 -17.572  0.00  0.00     0.222 C 
ATOM      8  O   UNL d   1     -13.978 -38.318 -17.625  0.00  0.00    -0.286 OA
BRANCH   7   9
ATOM      9  C   UNL d   1     -16.022 -39.061 -18.557  0.00  0.00     0.213 C 
ATOM     10  O   UNL d   1     -17.155 -38.773 -18.885  0.00  0.00    -0.644 OA
BRANCH   9  11
ATOM     11  O   UNL d   1     -15.325 -40.125 -18.994  0.00  0.00    -0.771 OA
ATOM     12  H   UNL d   1     -14.466 -40.182 -18.512  0.00  0.00     0.168 HD
ENDBRANCH   9  11
ENDBRANCH   7   9
ENDBRANCH   1   7
TORSDOF 6
ENDMDL
MODEL 6
REMARK VINA RESULT:      -0.1     79.409     80.276
REMARK  6 active torsions:
REMARK  status: ('A' for Active; 'I' for Inactive)
REMARK    1  A    between atoms: O_1  and  C_2 
REMARK    2  A    between atoms: C_2  and  C_3 
REMARK    3  A    between atoms: C_3  and  C_5 
REMARK    4  A    between atoms: C_5  and  C_6 
REMARK    5  A    between atoms: C_6  and  C_7 
REMARK    6  A    between atoms: C_7  and  O_10 
ROOT
ATOM      1  C   UNL d   1       7.652  34.006   3.923  0.00  0.00     0.101 C 
ENDROOT
BRANCH   1   2
ATOM      2  C   UNL d   1       8.150  33.535   5.286  0.00  0.00     0.118 C 
BRANCH   2   3
ATOM      3  C   UNL d   1       8.956  32.265   5.159  0.00  0.00     0.139 C 
ATOM      4  O   UNL d   1      10.095  32.117   5.570  0.00  0.00    -0.650 OA
BRANCH   3   5
ATOM      5  O   UNL d   1       8.280  31.278   4.530  0.00  0.00    -0.776 OA
ATOM      6  H   UNL d   1       8.614  31.063   3.639  0.00  0.00     0.167 HD
ENDBRANCH   3   5
ENDBRANCH   2   3
ENDBRANCH   1   2
BRANCH   1   7
ATOM      7  C   UNL d   1       8.786  34.385   3.005  0.00  0.00     0.222 C 
ATOM      8  O   UNL d   1       9.657  35.216   3.243  0.00  0.00    -0.286 OA
BRANCH   7   9
ATOM      9  C   UNL d   1       8.842  33.657   1.661  0.00  0.00     0.213 C 
ATOM     10  O   UNL d   1       9.376  34.125   0.676  0.00  0.00    -0.644 OA
BRANCH   9  11
ATOM     11  O   UNL d   1       8.234  32.459   1.731  0.00  0.00    -0.771 OA
ATOM     12  H   UNL d   1       7.996  32.259   2.667  0.00  0.00     0.168 HD
ENDBRANCH   9  11
ENDBRANCH   7   9
ENDBRANCH   1   7
TORSDOF 6
ENDMDL
MODEL 7
REMARK VINA RESULT:      -0.1     51.564     52.746
REMARK  6 active torsions:
REMARK  status: ('A' for Active; 'I' for Inactive)
REMARK    1  A    between atoms: O_1  and  C_2 
REMARK    2  A    between atoms: C_2  and  C_3 
REMARK    3  A    between atoms: C_3  and  C_5 
REMARK    4  A    between atoms: C_5  and  C_6 
REMARK    5  A    between atoms: C_6  and  C_7 
REMARK    6  A    between atoms: C_7  and  O_10 
ROOT
ATOM      1  C   UNL d   1      27.910 -11.186 -13.316  0.00  0.00     0.101 C 
ENDROOT
BRANCH   1   2
ATOM      2  C   UNL d   1      27.649  -9.855 -12.617  0.00  0.00     0.118 C 
BRANCH   2   3
ATOM      3  C   UNL d   1      28.273  -8.712 -13.379  0.00  0.00     0.139 C 
ATOM      4  O   UNL d   1      27.673  -7.725 -13.771  0.00  0.00    -0.650 OA
BRANCH   3   5
ATOM      5  O   UNL d   1      29.596  -8.888 -13.593  0.00  0.00    -0.776 OA
ATOM      6  H   UNL d   1      30.164  -8.190 -13.214  0.00  0.00     0.167 HD
ENDBRANCH   3   5
ENDBRANCH   2   3
ENDBRANCH   1   2
BRANCH   1   7
ATOM      7  C   UNL d   1      27.256 -11.252 -14.672  0.00  0.00     0.222 C 
ATOM      8  O   UNL d   1      26.061 -11.090 -14.903  0.00  0.00    -0.286 OA
BRANCH   7   9
ATOM      9  C   UNL d   1      28.178 -11.547 -15.856  0.00  0.00     0.213 C 
ATOM     10  O   UNL d   1      27.790 -12.055 -16.889  0.00  0.00    -0.644 OA
BRANCH   9  11
ATOM     11  O   UNL d   1      29.442 -11.169 -15.594  0.00  0.00    -0.771 OA
ATOM     12  H   UNL d   1      29.514 -10.187 -15.641  0.00  0.00     0.168 HD
ENDBRANCH   9  11
ENDBRANCH   7   9
ENDBRANCH   1   7
TORSDOF 6
ENDMDL
MODEL 8
REMARK VINA RESULT:      -0.1     34.628     36.794
REMARK  6 active torsions:
REMARK  status: ('A' for Active; 'I' for Inactive)
REMARK    1  A    between atoms: O_1  and  C_2 
REMARK    2  A    between atoms: C_2  and  C_3 
REMARK    3  A    between atoms: C_3  and  C_5 
REMARK    4  A    between atoms: C_5  and  C_6 
REMARK    5  A    between atoms: C_6  and  C_7 
REMARK    6  A    between atoms: C_7  and  O_10 
ROOT
ATOM      1  C   UNL d   1     -11.349 -32.212  15.267  0.00  0.00     0.101 C 
ENDROOT
BRANCH   1   2
ATOM      2  C   UNL d   1     -11.710 -32.903  16.579  0.00  0.00     0.118 C 
BRANCH   2   3
ATOM      3  C   UNL d   1     -12.755 -33.969  16.359  0.00  0.00     0.139 C 
ATOM      4  O   UNL d   1     -12.639 -35.138  16.688  0.00  0.00    -0.650 OA
BRANCH   3   5
ATOM      5  O   UNL d   1     -13.864 -33.497  15.747  0.00  0.00    -0.776 OA
ATOM      6  H   UNL d   1     -14.530 -34.177  15.535  0.00  0.00     0.167 HD
ENDBRANCH   3   5
ENDBRANCH   2   3
ENDBRANCH   1   2
BRANCH   1   7
ATOM      7  C   UNL d   1     -10.703 -33.159  14.287  0.00  0.00     0.222 C 
ATOM      8  O   UNL d   1      -9.695 -33.829  14.492  0.00  0.00    -0.286 OA
BRANCH   7   9
ATOM      9  C   UNL d   1     -11.379 -33.286  12.921  0.00  0.00     0.213 C 
ATOM     10  O   UNL d   1     -10.786 -33.626  11.917  0.00  0.00    -0.644 OA
BRANCH   9  11
ATOM     11  O   UNL d   1     -12.686 -32.977  12.994  0.00  0.00    -0.771 OA
ATOM     12  H   UNL d   1     -13.124 -33.538  13.676  0.00  0.00     0.168 HD
ENDBRANCH   9  11
ENDBRANCH   7   9
ENDBRANCH   1   7
TORSDOF 6
ENDMDL
MODEL 9
REMARK VINA RESULT:      -0.1     35.492     36.267
REMARK  6 active torsions:
REMARK  status: ('A' for Active; 'I' for Inactive)
REMARK    1  A    between atoms: O_1  and  C_2 
REMARK    2  A    between atoms: C_2  and  C_3 
REMARK    3  A    between atoms: C_3  and  C_5 
REMARK    4  A    between atoms: C_5  and  C_6 
REMARK    5  A    between atoms: C_6  and  C_7 
REMARK    6  A    between atoms: C_7  and  O_10 
ROOT
ATOM      1  C   UNL d   1     -11.349 -32.212  15.267  0.00  0.00     0.101 C 
ENDROOT
BRANCH   1   2
ATOM      2  C   UNL d   1     -12.856 -32.433  15.190  0.00  0.00     0.118 C 
BRANCH   2   3
ATOM      3  C   UNL d   1     -13.356 -32.270  13.775  0.00  0.00     0.139 C 
ATOM      4  O   UNL d   1     -13.995 -33.107  13.160  0.00  0.00    -0.650 OA
BRANCH   3   5
ATOM      5  O   UNL d   1     -13.020 -31.077  13.236  0.00  0.00    -0.776 OA
ATOM      6  H   UNL d   1     -13.275 -30.969  12.300  0.00  0.00     0.167 HD
ENDBRANCH   3   5
ENDBRANCH   2   3
ENDBRANCH   1   2
BRANCH   1   7
ATOM      7  C   UNL d   1     -10.583 -33.251  14.488  0.00  0.00     0.222 C 
ATOM      8  O   UNL d   1     -10.656 -34.466  14.645  0.00  0.00    -0.286 OA
BRANCH   7   9
ATOM      9  C   UNL d   1      -9.636 -32.727  13.407  0.00  0.00     0.213 C 
ATOM     10  O   UNL d   1      -8.665 -33.346  13.019  0.00  0.00    -0.644 OA
BRANCH   9  11
ATOM     11  O   UNL d   1     -10.026 -31.519  12.963  0.00  0.00    -0.771 OA
ATOM     12  H   UNL d   1     -10.958 -31.565  12.646  0.00  0.00     0.168 HD
ENDBRANCH   9  11
ENDBRANCH   7   9
ENDBRANCH   1   7
TORSDOF 6
ENDMDL
