MODEL 1
REMARK VINA RESULT:      -3.9      0.000      0.000
REMARK  6 active torsions:
REMARK  status: ('A' for Active; 'I' for Inactive)
REMARK    1  A    between atoms: O_1  and  C_2 
REMARK    2  A    between atoms: C_2  and  C_3 
REMARK    3  A    between atoms: C_3  and  C_5 
REMARK    4  A    between atoms: C_5  and  C_6 
REMARK    5  A    between atoms: C_6  and  C_7 
REMARK    6  A    between atoms: C_7  and  O_10 
ROOT
ATOM      1  C   UNL d   1     -35.924  29.526  -9.479  0.00  0.00     0.101 C 
ENDROOT
BRANCH   1   2
ATOM      2  C   UNL d   1     -36.282  30.860  -8.831  0.00  0.00     0.118 C 
BRANCH   2   3
ATOM      3  C   UNL d   1     -36.863  30.654  -7.453  0.00  0.00     0.139 C 
ATOM      4  O   UNL d   1     -36.943  29.579  -6.883  0.00  0.00    -0.650 OA
BRANCH   3   5
ATOM      5  O   UNL d   1     -37.299  31.804  -6.893  0.00  0.00    -0.776 OA
ATOM      6  H   UNL d   1     -38.204  32.063  -7.151  0.00  0.00     0.167 HD
ENDBRANCH   3   5
ENDBRANCH   2   3
ENDBRANCH   1   2
BRANCH   1   7
ATOM      7  C   UNL d   1     -34.443  29.395  -9.727  0.00  0.00     0.222 C 
ATOM      8  O   UNL d   1     -33.798  30.009 -10.571  0.00  0.00    -0.286 OA
BRANCH   7   9
ATOM      9  C   UNL d   1     -33.691  28.405  -8.835  0.00  0.00     0.213 C 
ATOM     10  O   UNL d   1     -32.653  27.870  -9.167  0.00  0.00    -0.644 OA
BRANCH   9  11
ATOM     11  O   UNL d   1     -34.328  28.224  -7.664  0.00  0.00    -0.771 OA
ATOM     12  H   UNL d   1     -35.047  28.892  -7.568  0.00  0.00     0.168 HD
ENDBRANCH   9  11
ENDBRANCH   7   9
ENDBRANCH   1   7
TORSDOF 6
ENDMDL
MODEL 2
REMARK VINA RESULT:      -3.6     22.510     23.706
REMARK  6 active torsions:
REMARK  status: ('A' for Active; 'I' for Inactive)
REMARK    1  A    between atoms: O_1  and  C_2 
REMARK    2  A    between atoms: C_2  and  C_3 
REMARK    3  A    between atoms: C_3  and  C_5 
REMARK    4  A    between atoms: C_5  and  C_6 
REMARK    5  A    between atoms: C_6  and  C_7 
REMARK    6  A    between atoms: C_7  and  O_10 
ROOT
ATOM      1  C   UNL d   1     -18.220  29.065 -25.751  0.00  0.00     0.101 C 
ENDROOT
BRANCH   1   2
ATOM      2  C   UNL d   1     -19.128  28.133 -26.548  0.00  0.00     0.118 C 
BRANCH   2   3
ATOM      3  C   UNL d   1     -19.038  26.717 -26.033  0.00  0.00     0.139 C 
ATOM      4  O   UNL d   1     -18.417  25.817 -26.573  0.00  0.00    -0.650 OA
BRANCH   3   5
ATOM      5  O   UNL d   1     -19.728  26.534 -24.885  0.00  0.00    -0.776 OA
ATOM      6  H   UNL d   1     -20.167  27.336 -24.545  0.00  0.00     0.167 HD
ENDBRANCH   3   5
ENDBRANCH   2   3
ENDBRANCH   1   2
BRANCH   1   7
ATOM      7  C   UNL d   1     -18.991  29.895 -24.756  0.00  0.00     0.222 C 
ATOM      8  O   UNL d   1     -19.499  29.484 -23.717  0.00  0.00    -0.286 OA
BRANCH   7   9
ATOM      9  C   UNL d   1     -19.142  31.381 -25.086  0.00  0.00     0.213 C 
ATOM     10  O   UNL d   1     -20.173  31.865 -25.507  0.00  0.00    -0.644 OA
BRANCH   9  11
ATOM     11  O   UNL d   1     -18.001  32.051 -24.845  0.00  0.00    -0.771 OA
ATOM     12  H   UNL d   1     -17.756  31.963 -23.894  0.00  0.00     0.168 HD
ENDBRANCH   9  11
ENDBRANCH   7   9
ENDBRANCH   1   7
TORSDOF 6
ENDMDL
MODEL 3
REMARK VINA RESULT:      -3.6     16.662     18.884
REMARK  6 active torsions:
REMARK  status: ('A' for Active; 'I' for Inactive)
REMARK    1  A    between atoms: O_1  and  C_2 
REMARK    2  A    between atoms: C_2  and  C_3 
REMARK    3  A    between atoms: C_3  and  C_5 
REMARK    4  A    between atoms: C_5  and  C_6 
REMARK    5  A    between atoms: C_6  and  C_7 
REMARK    6  A    between atoms: C_7  and  O_10 
ROOT
ATOM      1  C   UNL d   1     -24.708  17.145 -17.175  0.00  0.00     0.101 C 
ENDROOT
BRANCH   1   2
ATOM      2  C   UNL d   1     -25.143  18.586 -17.426  0.00  0.00     0.118 C 
BRANCH   2   3
ATOM      3  C   UNL d   1     -26.601  18.652 -17.808  0.00  0.00     0.139 C 
ATOM      4  O   UNL d   1     -27.128  19.585 -18.392  0.00  0.00    -0.650 OA
BRANCH   3   5
ATOM      5  O   UNL d   1     -27.290  17.552 -17.432  0.00  0.00    -0.776 OA
ATOM      6  H   UNL d   1     -27.523  16.951 -18.165  0.00  0.00     0.167 HD
ENDBRANCH   3   5
ENDBRANCH   2   3
ENDBRANCH   1   2
BRANCH   1   7
ATOM      7  C   UNL d   1     -23.611  16.712 -18.115  0.00  0.00     0.222 C 
ATOM      8  O   UNL d   1     -23.590  16.895 -19.328  0.00  0.00    -0.286 OA
BRANCH   7   9
ATOM      9  C   UNL d   1     -22.426  15.981 -17.482  0.00  0.00     0.213 C 
ATOM     10  O   UNL d   1     -21.296  16.046 -17.923  0.00  0.00    -0.644 OA
BRANCH   9  11
ATOM     11  O   UNL d   1     -22.808  15.279 -16.400  0.00  0.00    -0.771 OA
ATOM     12  H   UNL d   1     -22.149  14.570 -16.212  0.00  0.00     0.168 HD
ENDBRANCH   9  11
ENDBRANCH   7   9
ENDBRANCH   1   7
TORSDOF 6
ENDMDL
MODEL 4
REMARK VINA RESULT:      -3.6     21.149     22.257
REMARK  6 active torsions:
REMARK  status: ('A' for Active; 'I' for Inactive)
REMARK    1  A    between atoms: O_1  and  C_2 
REMARK    2  A    between atoms: C_2  and  C_3 
REMARK    3  A    between atoms: C_3  and  C_5 
REMARK    4  A    between atoms: C_5  and  C_6 
REMARK    5  A    between atoms: C_6  and  C_7 
REMARK    6  A    between atoms: C_7  and  O_10 
ROOT
ATOM      1  C   UNL d   1     -17.721  16.144 -14.251  0.00  0.00     0.101 C 
ENDROOT
BRANCH   1   2
ATOM      2  C   UNL d   1     -18.785  15.080 -13.999  0.00  0.00     0.118 C 
BRANCH   2   3
ATOM      3  C   UNL d   1     -19.648  14.877 -15.220  0.00  0.00     0.139 C 
ATOM      4  O   UNL d   1     -19.459  14.026 -16.075  0.00  0.00    -0.650 OA
BRANCH   3   5
ATOM      5  O   UNL d   1     -20.679  15.748 -15.283  0.00  0.00    -0.776 OA
ATOM      6  H   UNL d   1     -21.273  15.619 -16.046  0.00  0.00     0.167 HD
ENDBRANCH   3   5
ENDBRANCH   2   3
ENDBRANCH   1   2
BRANCH   1   7
ATOM      7  C   UNL d   1     -18.127  17.491 -13.710  0.00  0.00     0.222 C 
ATOM      8  O   UNL d   1     -19.273  17.849 -13.459  0.00  0.00    -0.286 OA
BRANCH   7   9
ATOM      9  C   UNL d   1     -16.996  18.489 -13.456  0.00  0.00     0.213 C 
ATOM     10  O   UNL d   1     -16.974  19.237 -12.500  0.00  0.00    -0.644 OA
BRANCH   9  11
ATOM     11  O   UNL d   1     -16.056  18.415 -14.417  0.00  0.00    -0.771 OA
ATOM     12  H   UNL d   1     -15.830  17.471 -14.590  0.00  0.00     0.168 HD
ENDBRANCH   9  11
ENDBRANCH   7   9
ENDBRANCH   1   7
TORSDOF 6
ENDMDL
MODEL 5
REMARK VINA RESULT:      -3.6     43.746     45.005
REMARK  6 active torsions:
REMARK  status: ('A' for Active; 'I' for Inactive)
REMARK    1  A    between atoms: O_1  and  C_2 
REMARK    2  A    between atoms: C_2  and  C_3 
REMARK    3  A    between atoms: C_3  and  C_5 
REMARK    4  A    between atoms: C_5  and  C_6 
REMARK    5  A    between atoms: C_6  and  C_7 
REMARK    6  A    between atoms: C_7  and  O_10 
ROOT
ATOM      1  C   UNL d   1     -39.702  -5.322 -36.956  0.00  0.00     0.101 C 
ENDROOT
BRANCH   1   2
ATOM      2  C   UNL d   1     -38.989  -4.357 -37.899  0.00  0.00     0.118 C 
BRANCH   2   3
ATOM      3  C   UNL d   1     -38.455  -3.162 -37.148  0.00  0.00     0.139 C 
ATOM      4  O   UNL d   1     -39.064  -2.120 -36.971  0.00  0.00    -0.650 OA
BRANCH   3   5
ATOM      5  O   UNL d   1     -37.204  -3.358 -36.676  0.00  0.00    -0.776 OA
ATOM      6  H   UNL d   1     -37.073  -4.210 -36.218  0.00  0.00     0.167 HD
ENDBRANCH   3   5
ENDBRANCH   2   3
ENDBRANCH   1   2
BRANCH   1   7
ATOM      7  C   UNL d   1     -38.979  -6.640 -36.841  0.00  0.00     0.222 C 
ATOM      8  O   UNL d   1     -39.006  -7.549 -37.664  0.00  0.00    -0.286 OA
BRANCH   7   9
ATOM      9  C   UNL d   1     -38.140  -6.845 -35.579  0.00  0.00     0.213 C 
ATOM     10  O   UNL d   1     -38.457  -7.608 -34.689  0.00  0.00    -0.644 OA
BRANCH   9  11
ATOM     11  O   UNL d   1     -37.033  -6.081 -35.601  0.00  0.00    -0.771 OA
ATOM     12  H   UNL d   1     -36.534  -6.241 -36.436  0.00  0.00     0.168 HD
ENDBRANCH   9  11
ENDBRANCH   7   9
ENDBRANCH   1   7
TORSDOF 6
ENDMDL
MODEL 6
REMARK VINA RESULT:      -3.6     19.200     20.339
REMARK  6 active torsions:
REMARK  status: ('A' for Active; 'I' for Inactive)
REMARK    1  A    between atoms: O_1  and  C_2 
REMARK    2  A    between atoms: C_2  and  C_3 
REMARK    3  A    between atoms: C_3  and  C_5 
REMARK    4  A    between atoms: C_5  and  C_6 
REMARK    5  A    between atoms: C_6  and  C_7 
REMARK    6  A    between atoms: C_7  and  O_10 
ROOT
ATOM      1  C   UNL d   1     -25.107  15.522 -17.237  0.00  0.00     0.101 C 
ENDROOT
BRANCH   1   2
ATOM      2  C   UNL d   1     -23.882  16.278 -16.730  0.00  0.00     0.118 C 
BRANCH   2   3
ATOM      3  C   UNL d   1     -22.859  16.446 -17.826  0.00  0.00     0.139 C 
ATOM      4  O   UNL d   1     -21.663  16.240 -17.702  0.00  0.00    -0.650 OA
BRANCH   3   5
ATOM      5  O   UNL d   1     -23.404  16.858 -18.992  0.00  0.00    -0.776 OA
ATOM      6  H   UNL d   1     -22.848  16.700 -19.778  0.00  0.00     0.167 HD
ENDBRANCH   3   5
ENDBRANCH   2   3
ENDBRANCH   1   2
BRANCH   1   7
ATOM      7  C   UNL d   1     -25.070  14.063 -16.860  0.00  0.00     0.222 C 
ATOM      8  O   UNL d   1     -24.313  13.219 -17.329  0.00  0.00    -0.286 OA
BRANCH   7   9
ATOM      9  C   UNL d   1     -26.070  13.611 -15.795  0.00  0.00     0.213 C 
ATOM     10  O   UNL d   1     -26.786  12.639 -15.927  0.00  0.00    -0.644 OA
BRANCH   9  11
ATOM     11  O   UNL d   1     -26.039  14.424 -14.723  0.00  0.00    -0.771 OA
ATOM     12  H   UNL d   1     -26.934  14.468 -14.312  0.00  0.00     0.168 HD
ENDBRANCH   9  11
ENDBRANCH   7   9
ENDBRANCH   1   7
TORSDOF 6
ENDMDL
MODEL 7
REMARK VINA RESULT:      -3.5     20.657     22.159
REMARK  6 active torsions:
REMARK  status: ('A' for Active; 'I' for Inactive)
REMARK    1  A    between atoms: O_1  and  C_2 
REMARK    2  A    between atoms: C_2  and  C_3 
REMARK    3  A    between atoms: C_3  and  C_5 
REMARK    4  A    between atoms: C_5  and  C_6 
REMARK    5  A    between atoms: C_6  and  C_7 
REMARK    6  A    between atoms: C_7  and  O_10 
ROOT
ATOM      1  C   UNL d   1     -17.009  16.761 -13.302  0.00  0.00     0.101 C 
ENDROOT
BRANCH   1   2
ATOM      2  C   UNL d   1     -16.765  18.225 -13.652  0.00  0.00     0.118 C 
BRANCH   2   3
ATOM      3  C   UNL d   1     -17.391  19.139 -12.628  0.00  0.00     0.139 C 
ATOM      4  O   UNL d   1     -18.422  19.771 -12.793  0.00  0.00    -0.650 OA
BRANCH   3   5
ATOM      5  O   UNL d   1     -16.686  19.195 -11.476  0.00  0.00    -0.776 OA
ATOM      6  H   UNL d   1     -16.809  20.017 -10.965  0.00  0.00     0.167 HD
ENDBRANCH   3   5
ENDBRANCH   2   3
ENDBRANCH   1   2
BRANCH   1   7
ATOM      7  C   UNL d   1     -17.560  15.982 -14.470  0.00  0.00     0.222 C 
ATOM      8  O   UNL d   1     -16.911  15.554 -15.419  0.00  0.00    -0.286 OA
BRANCH   7   9
ATOM      9  C   UNL d   1     -19.065  15.709 -14.453  0.00  0.00     0.213 C 
ATOM     10  O   UNL d   1     -19.886  16.539 -14.116  0.00  0.00    -0.644 OA
BRANCH   9  11
ATOM     11  O   UNL d   1     -19.337  14.455 -14.856  0.00  0.00    -0.771 OA
ATOM     12  H   UNL d   1     -18.499  13.989 -15.084  0.00  0.00     0.168 HD
ENDBRANCH   9  11
ENDBRANCH   7   9
ENDBRANCH   1   7
TORSDOF 6
ENDMDL
MODEL 8
REMARK VINA RESULT:      -3.5     15.506     17.155
REMARK  6 active torsions:
REMARK  status: ('A' for Active; 'I' for Inactive)
REMARK    1  A    between atoms: O_1  and  C_2 
REMARK    2  A    between atoms: C_2  and  C_3 
REMARK    3  A    between atoms: C_3  and  C_5 
REMARK    4  A    between atoms: C_5  and  C_6 
REMARK    5  A    between atoms: C_6  and  C_7 
REMARK    6  A    between atoms: C_7  and  O_10 
ROOT
ATOM      1  C   UNL d   1     -26.665  22.976 -20.188  0.00  0.00     0.101 C 
ENDROOT
BRANCH   1   2
ATOM      2  C   UNL d   1     -27.037  23.645 -21.508  0.00  0.00     0.118 C 
BRANCH   2   3
ATOM      3  C   UNL d   1     -26.049  23.290 -22.592  0.00  0.00     0.139 C 
ATOM      4  O   UNL d   1     -25.860  22.164 -23.022  0.00  0.00    -0.650 OA
BRANCH   3   5
ATOM      5  O   UNL d   1     -25.374  24.365 -23.056  0.00  0.00    -0.776 OA
ATOM      6  H   UNL d   1     -24.990  24.248 -23.946  0.00  0.00     0.167 HD
ENDBRANCH   3   5
ENDBRANCH   2   3
ENDBRANCH   1   2
BRANCH   1   7
ATOM      7  C   UNL d   1     -27.591  21.835 -19.850  0.00  0.00     0.222 C 
ATOM      8  O   UNL d   1     -28.793  21.928 -19.622  0.00  0.00    -0.286 OA
BRANCH   7   9
ATOM      9  C   UNL d   1     -26.959  20.443 -19.792  0.00  0.00     0.213 C 
ATOM     10  O   UNL d   1     -26.837  19.813 -18.761  0.00  0.00    -0.644 OA
BRANCH   9  11
ATOM     11  O   UNL d   1     -26.572  20.033 -21.014  0.00  0.00    -0.771 OA
ATOM     12  H   UNL d   1     -26.642  20.780 -21.654  0.00  0.00     0.168 HD
ENDBRANCH   9  11
ENDBRANCH   7   9
ENDBRANCH   1   7
TORSDOF 6
ENDMDL
MODEL 9
REMARK VINA RESULT:      -3.5      2.241      4.079
REMARK  6 active torsions:
REMARK  status: ('A' for Active; 'I' for Inactive)
REMARK    1  A    between atoms: O_1  and  C_2 
REMARK    2  A    between atoms: C_2  and  C_3 
REMARK    3  A    between atoms: C_3  and  C_5 
REMARK    4  A    between atoms: C_5  and  C_6 
REMARK    5  A    between atoms: C_6  and  C_7 
REMARK    6  A    between atoms: C_7  and  O_10 
ROOT
ATOM      1  C   UNL d   1     -35.004  29.730 -10.662  0.00  0.00     0.101 C 
ENDROOT
BRANCH   1   2
ATOM      2  C   UNL d   1     -34.355  28.415 -10.242  0.00  0.00     0.118 C 
BRANCH   2   3
ATOM      3  C   UNL d   1     -33.922  28.461  -8.797  0.00  0.00     0.139 C 
ATOM      4  O   UNL d   1     -34.644  28.768  -7.862  0.00  0.00    -0.650 OA
BRANCH   3   5
ATOM      5  O   UNL d   1     -32.625  28.121  -8.629  0.00  0.00    -0.776 OA
ATOM      6  H   UNL d   1     -32.232  28.426  -7.789  0.00  0.00     0.167 HD
ENDBRANCH   3   5
ENDBRANCH   2   3
ENDBRANCH   1   2
BRANCH   1   7
ATOM      7  C   UNL d   1     -33.991  30.729 -11.162  0.00  0.00     0.222 C 
ATOM      8  O   UNL d   1     -32.986  30.467 -11.815  0.00  0.00    -0.286 OA
BRANCH   7   9
ATOM      9  C   UNL d   1     -34.257  32.195 -10.817  0.00  0.00     0.213 C 
ATOM     10  O   UNL d   1     -35.219  32.560 -10.172  0.00  0.00    -0.644 OA
BRANCH   9  11
ATOM     11  O   UNL d   1     -33.296  32.994 -11.315  0.00  0.00    -0.771 OA
ATOM     12  H   UNL d   1     -32.513  32.989 -10.716  0.00  0.00     0.168 HD
ENDBRANCH   9  11
ENDBRANCH   7   9
ENDBRANCH   1   7
TORSDOF 6
ENDMDL
