MODEL 1
REMARK VINA RESULT:      -8.7      0.000      0.000
REMARK  5 active torsions:
REMARK  status: ('A' for Active; 'I' for Inactive)
REMARK    1  A    between atoms: C_2  and  O_1 
REMARK    2  A    between atoms: C_3  and  C_2 
REMARK    3  A    between atoms: C_4  and  C_3 
REMARK    4  A    between atoms: C_4  and  O_6 
REMARK    5  A    between atoms: C_24  and  O_25 
ROOT
ATOM      1  C   UNL d   1     -21.384 -28.839  18.692  0.00  0.00     0.128 C 
ATOM      2  C   UNL d   1     -20.420 -27.664  19.027  0.00  0.00     0.047 C 
ATOM      3  C   UNL d   1     -21.905 -29.024  20.191  0.00  0.00    -0.002 C 
ATOM      4  C   UNL d   1     -19.585 -28.223  20.184  0.00  0.00     0.009 C 
ATOM      5  C   UNL d   1     -22.950 -27.825  20.261  0.00  0.00     0.019 C 
ATOM      6  C   UNL d   1     -22.682 -30.180  20.885  0.00  0.00     0.013 C 
ATOM      7  C   UNL d   1     -20.602 -29.007  21.014  0.00  0.00     0.002 C 
ATOM      8  C   UNL d   1     -23.052 -29.776  22.375  0.00  0.00     0.007 C 
ATOM      9  C   UNL d   1     -20.819 -28.467  22.409  0.00  0.00    -0.001 C 
ATOM     10  C   UNL d   1     -21.912 -29.145  23.303  0.00  0.00     0.003 C 
ATOM     11  C   UNL d   1     -19.528 -28.460  23.226  0.00  0.00     0.033 C 
ATOM     12  C   UNL d   1     -22.279 -28.009  24.491  0.00  0.00    -0.017 C 
ATOM     13  C   UNL d   1     -19.762 -27.460  24.287  0.00  0.00    -0.023 C 
ATOM     14  C   UNL d   1     -23.691 -27.505  24.055  0.00  0.00     0.020 C 
ATOM     15  C   UNL d   1     -22.544 -28.405  25.991  0.00  0.00     0.016 C 
ATOM     16  C   UNL d   1     -20.980 -27.102  24.765  0.00  0.00    -0.072 C 
ATOM     17  C   UNL d   1     -22.904 -27.100  26.804  0.00  0.00     0.033 C 
ATOM     18  C   UNL d   1     -20.910 -25.992  25.764  0.00  0.00     0.066 C 
ATOM     19  C   UNL d   1     -21.710 -26.190  27.037  0.00  0.00     0.122 C 
ENDROOT
BRANCH   1  20
ATOM     20  O   UNL d   1     -20.174 -29.386  17.957  0.00  0.00    -0.381 OA
ATOM     21  H   UNL d   1     -20.307 -29.125  17.010  0.00  0.00     0.211 HD
ENDBRANCH   1  20
BRANCH   1  22
ATOM     22  C   UNL d   1     -21.873 -30.136  18.027  0.00  0.00     0.184 C 
ATOM     23  O   UNL d   1     -23.017 -30.210  17.555  0.00  0.00    -0.292 OA
BRANCH  22  24
ATOM     24  C   UNL d   1     -20.932 -31.392  17.973  0.00  0.00     0.245 C 
BRANCH  24  25
ATOM     25  O   UNL d   1     -21.612 -32.575  18.352  0.00  0.00    -0.393 OA
ATOM     26  H   UNL d   1     -22.522 -32.285  18.558  0.00  0.00     0.209 HD
ENDBRANCH  24  25
ENDBRANCH  22  24
ENDBRANCH   1  22
BRANCH  19  27
ATOM     27  O   UNL d   1     -22.138 -24.911  27.523  0.00  0.00    -0.395 OA
ATOM     28  H   UNL d   1     -21.353 -24.444  27.866  0.00  0.00     0.210 HD
ENDBRANCH  19  27
TORSDOF 5
ENDMDL
MODEL 2
REMARK VINA RESULT:      -8.4     13.906     15.544
REMARK  5 active torsions:
REMARK  status: ('A' for Active; 'I' for Inactive)
REMARK    1  A    between atoms: C_2  and  O_1 
REMARK    2  A    between atoms: C_3  and  C_2 
REMARK    3  A    between atoms: C_4  and  C_3 
REMARK    4  A    between atoms: C_4  and  O_6 
REMARK    5  A    between atoms: C_24  and  O_25 
ROOT
ATOM      1  C   UNL d   1     -32.301 -20.075  18.642  0.00  0.00     0.128 C 
ATOM      2  C   UNL d   1     -31.000 -19.462  19.236  0.00  0.00     0.047 C 
ATOM      3  C   UNL d   1     -33.265 -19.469  19.763  0.00  0.00    -0.002 C 
ATOM      4  C   UNL d   1     -31.042 -19.918  20.698  0.00  0.00     0.009 C 
ATOM      5  C   UNL d   1     -33.397 -17.976  19.224  0.00  0.00     0.019 C 
ATOM      6  C   UNL d   1     -34.731 -19.805  20.163  0.00  0.00     0.013 C 
ATOM      7  C   UNL d   1     -32.518 -19.792  21.071  0.00  0.00     0.002 C 
ATOM      8  C   UNL d   1     -35.241 -18.795  21.277  0.00  0.00     0.007 C 
ATOM      9  C   UNL d   1     -32.805 -18.775  22.153  0.00  0.00    -0.001 C 
ATOM     10  C   UNL d   1     -34.300 -18.506  22.538  0.00  0.00     0.003 C 
ATOM     11  C   UNL d   1     -32.072 -19.102  23.452  0.00  0.00     0.033 C 
ATOM     12  C   UNL d   1     -34.296 -17.004  23.301  0.00  0.00    -0.017 C 
ATOM     13  C   UNL d   1     -32.005 -17.818  24.178  0.00  0.00    -0.023 C 
ATOM     14  C   UNL d   1     -34.948 -16.075  22.228  0.00  0.00     0.020 C 
ATOM     15  C   UNL d   1     -35.186 -16.691  24.560  0.00  0.00     0.016 C 
ATOM     16  C   UNL d   1     -32.874 -16.789  24.020  0.00  0.00    -0.072 C 
ATOM     17  C   UNL d   1     -34.965 -15.183  24.975  0.00  0.00     0.033 C 
ATOM     18  C   UNL d   1     -32.494 -15.580  24.813  0.00  0.00     0.066 C 
ATOM     19  C   UNL d   1     -33.609 -14.929  25.610  0.00  0.00     0.122 C 
ENDROOT
BRANCH   1  20
ATOM     20  O   UNL d   1     -31.467 -21.342  18.588  0.00  0.00    -0.381 OA
ATOM     21  H   UNL d   1     -30.622 -21.115  19.053  0.00  0.00     0.211 HD
ENDBRANCH   1  20
BRANCH   1  22
ATOM     22  C   UNL d   1     -33.209 -21.124  17.979  0.00  0.00     0.184 C 
ATOM     23  O   UNL d   1     -33.339 -22.252  18.478  0.00  0.00    -0.292 OA
BRANCH  22  24
ATOM     24  C   UNL d   1     -33.952 -20.783  16.638  0.00  0.00     0.245 C 
BRANCH  24  25
ATOM     25  O   UNL d   1     -33.150 -19.994  15.778  0.00  0.00    -0.393 OA
ATOM     26  H   UNL d   1     -33.675 -19.186  15.618  0.00  0.00     0.209 HD
ENDBRANCH  24  25
ENDBRANCH  22  24
ENDBRANCH   1  22
BRANCH  19  27
ATOM     27  O   UNL d   1     -33.354 -13.522  25.707  0.00  0.00    -0.395 OA
ATOM     28  H   UNL d   1     -34.195 -13.055  25.546  0.00  0.00     0.210 HD
ENDBRANCH  19  27
TORSDOF 5
ENDMDL
MODEL 3
REMARK VINA RESULT:      -8.4      1.679      7.685
REMARK  5 active torsions:
REMARK  status: ('A' for Active; 'I' for Inactive)
REMARK    1  A    between atoms: C_2  and  O_1 
REMARK    2  A    between atoms: C_3  and  C_2 
REMARK    3  A    between atoms: C_4  and  C_3 
REMARK    4  A    between atoms: C_4  and  O_6 
REMARK    5  A    between atoms: C_24  and  O_25 
ROOT
ATOM      1  C   UNL d   1     -21.821 -26.484  27.423  0.00  0.00     0.128 C 
ATOM      2  C   UNL d   1     -21.163 -25.671  26.271  0.00  0.00     0.047 C 
ATOM      3  C   UNL d   1     -22.307 -27.684  26.486  0.00  0.00    -0.002 C 
ATOM      4  C   UNL d   1     -22.286 -25.575  25.233  0.00  0.00     0.009 C 
ATOM      5  C   UNL d   1     -20.937 -28.481  26.337  0.00  0.00     0.019 C 
ATOM      6  C   UNL d   1     -23.333 -28.832  26.718  0.00  0.00     0.013 C 
ATOM      7  C   UNL d   1     -22.948 -26.951  25.292  0.00  0.00     0.002 C 
ATOM      8  C   UNL d   1     -23.333 -29.825  25.480  0.00  0.00     0.007 C 
ATOM      9  C   UNL d   1     -22.842 -27.751  24.013  0.00  0.00    -0.001 C 
ATOM     10  C   UNL d   1     -23.407 -29.211  24.005  0.00  0.00     0.003 C 
ATOM     11  C   UNL d   1     -23.486 -27.026  22.832  0.00  0.00     0.033 C 
ATOM     12  C   UNL d   1     -22.653 -29.969  22.702  0.00  0.00    -0.017 C 
ATOM     13  C   UNL d   1     -22.855 -27.623  21.637  0.00  0.00    -0.023 C 
ATOM     14  C   UNL d   1     -21.636 -30.922  23.406  0.00  0.00     0.020 C 
ATOM     15  C   UNL d   1     -23.407 -30.973  21.754  0.00  0.00     0.016 C 
ATOM     16  C   UNL d   1     -22.318 -28.867  21.581  0.00  0.00    -0.072 C 
ATOM     17  C   UNL d   1     -22.385 -31.523  20.682  0.00  0.00     0.033 C 
ATOM     18  C   UNL d   1     -21.660 -29.158  20.270  0.00  0.00     0.066 C 
ATOM     19  C   UNL d   1     -22.003 -30.492  19.634  0.00  0.00     0.122 C 
ENDROOT
BRANCH   1  20
ATOM     20  O   UNL d   1     -22.443 -25.145  27.773  0.00  0.00    -0.381 OA
ATOM     21  H   UNL d   1     -22.304 -24.578  26.972  0.00  0.00     0.211 HD
ENDBRANCH   1  20
BRANCH   1  22
ATOM     22  C   UNL d   1     -22.626 -26.740  28.707  0.00  0.00     0.184 C 
ATOM     23  O   UNL d   1     -22.145 -27.415  29.629  0.00  0.00    -0.292 OA
BRANCH  22  24
ATOM     24  C   UNL d   1     -24.085 -26.175  28.844  0.00  0.00     0.245 C 
BRANCH  24  25
ATOM     25  O   UNL d   1     -24.413 -25.884  30.191  0.00  0.00    -0.393 OA
ATOM     26  H   UNL d   1     -25.051 -26.578  30.448  0.00  0.00     0.209 HD
ENDBRANCH  24  25
ENDBRANCH  22  24
ENDBRANCH   1  22
BRANCH  19  27
ATOM     27  O   UNL d   1     -20.880 -30.946  18.868  0.00  0.00    -0.395 OA
ATOM     28  H   UNL d   1     -20.140 -30.331  19.030  0.00  0.00     0.210 HD
ENDBRANCH  19  27
TORSDOF 5
ENDMDL
MODEL 4
REMARK VINA RESULT:      -6.4     14.233     17.100
REMARK  5 active torsions:
REMARK  status: ('A' for Active; 'I' for Inactive)
REMARK    1  A    between atoms: C_2  and  O_1 
REMARK    2  A    between atoms: C_3  and  C_2 
REMARK    3  A    between atoms: C_4  and  C_3 
REMARK    4  A    between atoms: C_4  and  O_6 
REMARK    5  A    between atoms: C_24  and  O_25 
ROOT
ATOM      1  C   UNL d   1     -33.913 -18.963  19.705  0.00  0.00     0.128 C 
ATOM      2  C   UNL d   1     -35.402 -19.312  19.992  0.00  0.00     0.047 C 
ATOM      3  C   UNL d   1     -33.790 -19.921  18.432  0.00  0.00    -0.002 C 
ATOM      4  C   UNL d   1     -35.393 -20.843  20.043  0.00  0.00     0.009 C 
ATOM      5  C   UNL d   1     -34.500 -19.008  17.338  0.00  0.00     0.019 C 
ATOM      6  C   UNL d   1     -32.553 -20.462  17.657  0.00  0.00     0.013 C 
ATOM      7  C   UNL d   1     -34.428 -21.234  18.925  0.00  0.00     0.002 C 
ATOM      8  C   UNL d   1     -33.021 -21.285  16.383  0.00  0.00     0.007 C 
ATOM      9  C   UNL d   1     -35.063 -22.014  17.796  0.00  0.00    -0.001 C 
ATOM     10  C   UNL d   1     -34.176 -22.379  16.558  0.00  0.00     0.003 C 
ATOM     11  C   UNL d   1     -35.688 -23.319  18.286  0.00  0.00     0.033 C 
ATOM     12  C   UNL d   1     -35.265 -22.709  15.316  0.00  0.00    -0.017 C 
ATOM     13  C   UNL d   1     -36.682 -23.670  17.251  0.00  0.00    -0.023 C 
ATOM     14  C   UNL d   1     -35.121 -21.456  14.395  0.00  0.00     0.020 C 
ATOM     15  C   UNL d   1     -35.044 -23.876  14.283  0.00  0.00     0.016 C 
ATOM     16  C   UNL d   1     -36.626 -23.279  15.954  0.00  0.00    -0.072 C 
ATOM     17  C   UNL d   1     -36.229 -23.859  13.239  0.00  0.00     0.033 C 
ATOM     18  C   UNL d   1     -37.825 -23.701  15.167  0.00  0.00     0.066 C 
ATOM     19  C   UNL d   1     -37.547 -24.342  13.821  0.00  0.00     0.122 C 
ENDROOT
BRANCH   1  20
ATOM     20  O   UNL d   1     -33.753 -19.215  21.192  0.00  0.00    -0.381 OA
ATOM     21  H   UNL d   1     -33.382 -18.372  21.559  0.00  0.00     0.211 HD
ENDBRANCH   1  20
BRANCH   1  22
ATOM     22  C   UNL d   1     -32.440 -18.648  20.007  0.00  0.00     0.184 C 
ATOM     23  O   UNL d   1     -31.822 -17.809  19.334  0.00  0.00    -0.292 OA
BRANCH  22  24
ATOM     24  C   UNL d   1     -31.693 -19.418  21.155  0.00  0.00     0.245 C 
BRANCH  24  25
ATOM     25  O   UNL d   1     -31.349 -20.736  20.767  0.00  0.00    -0.393 OA
ATOM     26  H   UNL d   1     -31.126 -21.191  21.602  0.00  0.00     0.209 HD
ENDBRANCH  24  25
ENDBRANCH  22  24
ENDBRANCH   1  22
BRANCH  19  27
ATOM     27  O   UNL d   1     -38.629 -24.046  12.929  0.00  0.00    -0.395 OA
ATOM     28  H   UNL d   1     -39.255 -24.794  12.961  0.00  0.00     0.210 HD
ENDBRANCH  19  27
TORSDOF 5
ENDMDL
MODEL 5
REMARK VINA RESULT:      -6.3     36.969     39.388
REMARK  5 active torsions:
REMARK  status: ('A' for Active; 'I' for Inactive)
REMARK    1  A    between atoms: C_2  and  O_1 
REMARK    2  A    between atoms: C_3  and  C_2 
REMARK    3  A    between atoms: C_4  and  C_3 
REMARK    4  A    between atoms: C_4  and  O_6 
REMARK    5  A    between atoms: C_24  and  O_25 
ROOT
ATOM      1  C   UNL d   1     -24.093   7.173  21.405  0.00  0.00     0.128 C 
ATOM      2  C   UNL d   1     -25.300   7.424  20.456  0.00  0.00     0.047 C 
ATOM      3  C   UNL d   1     -23.930   8.704  21.831  0.00  0.00    -0.002 C 
ATOM      4  C   UNL d   1     -24.789   8.541  19.539  0.00  0.00     0.009 C 
ATOM      5  C   UNL d   1     -25.103   8.811  22.903  0.00  0.00     0.019 C 
ATOM      6  C   UNL d   1     -22.770   9.467  22.535  0.00  0.00     0.013 C 
ATOM      7  C   UNL d   1     -23.999   9.446  20.483  0.00  0.00     0.002 C 
ATOM      8  C   UNL d   1     -23.198  10.968  22.826  0.00  0.00     0.007 C 
ATOM      9  C   UNL d   1     -24.565  10.840  20.631  0.00  0.00    -0.001 C 
ATOM     10  C   UNL d   1     -23.879  11.813  21.650  0.00  0.00     0.003 C 
ATOM     11  C   UNL d   1     -24.624  11.577  19.295  0.00  0.00     0.033 C 
ATOM     12  C   UNL d   1     -25.033  12.996  21.977  0.00  0.00    -0.017 C 
ATOM     13  C   UNL d   1     -25.641  12.630  19.492  0.00  0.00    -0.023 C 
ATOM     14  C   UNL d   1     -25.490  12.635  23.426  0.00  0.00     0.020 C 
ATOM     15  C   UNL d   1     -24.664  14.517  22.141  0.00  0.00     0.016 C 
ATOM     16  C   UNL d   1     -25.979  13.172  20.688  0.00  0.00    -0.072 C 
ATOM     17  C   UNL d   1     -25.978  15.322  22.488  0.00  0.00     0.033 C 
ATOM     18  C   UNL d   1     -27.113  14.141  20.589  0.00  0.00     0.066 C 
ATOM     19  C   UNL d   1     -26.923  15.463  21.307  0.00  0.00     0.122 C 
ENDROOT
BRANCH   1  20
ATOM     20  O   UNL d   1     -23.561   6.378  20.228  0.00  0.00    -0.381 OA
ATOM     21  H   UNL d   1     -24.338   5.863  19.891  0.00  0.00     0.211 HD
ENDBRANCH   1  20
BRANCH   1  22
ATOM     22  C   UNL d   1     -22.770   6.565  21.898  0.00  0.00     0.184 C 
ATOM     23  O   UNL d   1     -21.719   6.744  21.265  0.00  0.00    -0.292 OA
BRANCH  22  24
ATOM     24  C   UNL d   1     -22.748   5.679  23.195  0.00  0.00     0.245 C 
BRANCH  24  25
ATOM     25  O   UNL d   1     -24.025   5.138  23.483  0.00  0.00    -0.393 OA
ATOM     26  H   UNL d   1     -23.853   4.205  23.719  0.00  0.00     0.209 HD
ENDBRANCH  24  25
ENDBRANCH  22  24
ENDBRANCH   1  22
BRANCH  19  27
ATOM     27  O   UNL d   1     -28.201  15.947  21.740  0.00  0.00    -0.395 OA
ATOM     28  H   UNL d   1     -28.821  15.866  20.991  0.00  0.00     0.210 HD
ENDBRANCH  19  27
TORSDOF 5
ENDMDL
MODEL 6
REMARK VINA RESULT:      -6.3     36.588     38.927
REMARK  5 active torsions:
REMARK  status: ('A' for Active; 'I' for Inactive)
REMARK    1  A    between atoms: C_2  and  O_1 
REMARK    2  A    between atoms: C_3  and  C_2 
REMARK    3  A    between atoms: C_4  and  C_3 
REMARK    4  A    between atoms: C_4  and  O_6 
REMARK    5  A    between atoms: C_24  and  O_25 
ROOT
ATOM      1  C   UNL d   1     -22.631   7.059  20.463  0.00  0.00     0.128 C 
ATOM      2  C   UNL d   1     -21.564   8.032  19.887  0.00  0.00     0.047 C 
ATOM      3  C   UNL d   1     -23.575   8.212  21.040  0.00  0.00    -0.002 C 
ATOM      4  C   UNL d   1     -21.227   8.924  21.087  0.00  0.00     0.009 C 
ATOM      5  C   UNL d   1     -24.307   8.656  19.697  0.00  0.00     0.019 C 
ATOM      6  C   UNL d   1     -24.750   8.179  22.060  0.00  0.00     0.013 C 
ATOM      7  C   UNL d   1     -22.581   9.142  21.762  0.00  0.00     0.002 C 
ATOM      8  C   UNL d   1     -25.419   9.614  22.173  0.00  0.00     0.007 C 
ATOM      9  C   UNL d   1     -23.052  10.579  21.768  0.00  0.00    -0.001 C 
ATOM     10  C   UNL d   1     -24.471  10.890  22.353  0.00  0.00     0.003 C 
ATOM     11  C   UNL d   1     -22.070  11.498  22.493  0.00  0.00     0.033 C 
ATOM     12  C   UNL d   1     -24.893  12.391  21.716  0.00  0.00    -0.017 C 
ATOM     13  C   UNL d   1     -22.361  12.847  21.967  0.00  0.00    -0.023 C 
ATOM     14  C   UNL d   1     -25.981  12.019  20.660  0.00  0.00     0.020 C 
ATOM     15  C   UNL d   1     -25.644  13.488  22.557  0.00  0.00     0.016 C 
ATOM     16  C   UNL d   1     -23.553  13.241  21.454  0.00  0.00    -0.072 C 
ATOM     17  C   UNL d   1     -25.918  14.738  21.631  0.00  0.00     0.033 C 
ATOM     18  C   UNL d   1     -23.519  14.632  20.906  0.00  0.00     0.066 C 
ATOM     19  C   UNL d   1     -24.665  15.537  21.317  0.00  0.00     0.122 C 
ENDROOT
BRANCH   1  20
ATOM     20  O   UNL d   1     -21.418   6.351  21.037  0.00  0.00    -0.381 OA
ATOM     21  H   UNL d   1     -20.645   6.922  20.792  0.00  0.00     0.211 HD
ENDBRANCH   1  20
BRANCH   1  22
ATOM     22  C   UNL d   1     -23.191   5.812  21.168  0.00  0.00     0.184 C 
ATOM     23  O   UNL d   1     -22.786   5.489  22.295  0.00  0.00    -0.292 OA
BRANCH  22  24
ATOM     24  C   UNL d   1     -24.258   4.916  20.445  0.00  0.00     0.245 C 
BRANCH  24  25
ATOM     25  O   UNL d   1     -25.539   5.041  21.038  0.00  0.00    -0.393 OA
ATOM     26  H   UNL d   1     -25.663   6.002  21.162  0.00  0.00     0.209 HD
ENDBRANCH  24  25
ENDBRANCH  22  24
ENDBRANCH   1  22
BRANCH  19  27
ATOM     27  O   UNL d   1     -24.918  16.478  20.265  0.00  0.00    -0.395 OA
ATOM     28  H   UNL d   1     -25.729  16.969  20.492  0.00  0.00     0.210 HD
ENDBRANCH  19  27
TORSDOF 5
ENDMDL
MODEL 7
REMARK VINA RESULT:      -6.1     41.279     43.132
REMARK  5 active torsions:
REMARK  status: ('A' for Active; 'I' for Inactive)
REMARK    1  A    between atoms: C_2  and  O_1 
REMARK    2  A    between atoms: C_3  and  C_2 
REMARK    3  A    between atoms: C_4  and  C_3 
REMARK    4  A    between atoms: C_4  and  O_6 
REMARK    5  A    between atoms: C_24  and  O_25 
ROOT
ATOM      1  C   UNL d   1     -24.540  13.740  16.095  0.00  0.00     0.128 C 
ATOM      2  C   UNL d   1     -23.541  13.124  17.117  0.00  0.00     0.047 C 
ATOM      3  C   UNL d   1     -25.536  14.315  17.205  0.00  0.00    -0.002 C 
ATOM      4  C   UNL d   1     -24.446  12.270  18.012  0.00  0.00     0.009 C 
ATOM      5  C   UNL d   1     -24.736  15.625  17.629  0.00  0.00     0.019 C 
ATOM      6  C   UNL d   1     -27.000  14.837  17.115  0.00  0.00     0.013 C 
ATOM      7  C   UNL d   1     -25.703  13.125  18.169  0.00  0.00     0.002 C 
ATOM      8  C   UNL d   1     -27.464  15.410  18.521  0.00  0.00     0.007 C 
ATOM      9  C   UNL d   1     -25.979  13.577  19.585  0.00  0.00    -0.001 C 
ATOM     10  C   UNL d   1     -27.192  14.536  19.833  0.00  0.00     0.003 C 
ATOM     11  C   UNL d   1     -26.154  12.395  20.537  0.00  0.00     0.033 C 
ATOM     12  C   UNL d   1     -26.884  15.263  21.321  0.00  0.00    -0.017 C 
ATOM     13  C   UNL d   1     -25.875  12.949  21.877  0.00  0.00    -0.023 C 
ATOM     14  C   UNL d   1     -26.487  16.717  20.914  0.00  0.00     0.020 C 
ATOM     15  C   UNL d   1     -28.014  15.539  22.380  0.00  0.00     0.016 C 
ATOM     16  C   UNL d   1     -26.023  14.252  22.227  0.00  0.00    -0.072 C 
ATOM     17  C   UNL d   1     -27.375  16.271  23.625  0.00  0.00     0.033 C 
ATOM     18  C   UNL d   1     -25.566  14.535  23.622  0.00  0.00     0.066 C 
ATOM     19  C   UNL d   1     -26.510  15.359  24.477  0.00  0.00     0.122 C 
ENDROOT
BRANCH   1  20
ATOM     20  O   UNL d   1     -24.426  12.380  15.433  0.00  0.00    -0.381 OA
ATOM     21  H   UNL d   1     -23.829  12.520  14.654  0.00  0.00     0.211 HD
ENDBRANCH   1  20
BRANCH   1  22
ATOM     22  C   UNL d   1     -25.395  13.842  14.822  0.00  0.00     0.184 C 
ATOM     23  O   UNL d   1     -25.351  14.858  14.112  0.00  0.00    -0.292 OA
BRANCH  22  24
ATOM     24  C   UNL d   1     -26.361  12.667  14.429  0.00  0.00     0.245 C 
BRANCH  24  25
ATOM     25  O   UNL d   1     -26.168  12.253  13.089  0.00  0.00    -0.393 OA
ATOM     26  H   UNL d   1     -25.202  12.298  12.950  0.00  0.00     0.209 HD
ENDBRANCH  24  25
ENDBRANCH  22  24
ENDBRANCH   1  22
BRANCH  19  27
ATOM     27  O   UNL d   1     -25.741  16.125  25.415  0.00  0.00    -0.395 OA
ATOM     28  H   UNL d   1     -24.817  16.140  25.102  0.00  0.00     0.210 HD
ENDBRANCH  19  27
TORSDOF 5
ENDMDL
MODEL 8
REMARK VINA RESULT:      -6.0     36.703     39.131
REMARK  5 active torsions:
REMARK  status: ('A' for Active; 'I' for Inactive)
REMARK    1  A    between atoms: C_2  and  O_1 
REMARK    2  A    between atoms: C_3  and  C_2 
REMARK    3  A    between atoms: C_4  and  C_3 
REMARK    4  A    between atoms: C_4  and  O_6 
REMARK    5  A    between atoms: C_24  and  O_25 
ROOT
ATOM      1  C   UNL d   1     -22.621   7.073  21.397  0.00  0.00     0.128 C 
ATOM      2  C   UNL d   1     -22.371   7.184  19.866  0.00  0.00     0.047 C 
ATOM      3  C   UNL d   1     -23.247   8.535  21.543  0.00  0.00    -0.002 C 
ATOM      4  C   UNL d   1     -21.584   8.493  19.740  0.00  0.00     0.009 C 
ATOM      5  C   UNL d   1     -24.719   8.252  21.005  0.00  0.00     0.019 C 
ATOM      6  C   UNL d   1     -23.518   9.429  22.788  0.00  0.00     0.013 C 
ATOM      7  C   UNL d   1     -22.256   9.414  20.756  0.00  0.00     0.002 C 
ATOM      8  C   UNL d   1     -24.278  10.754  22.357  0.00  0.00     0.007 C 
ATOM      9  C   UNL d   1     -22.930  10.626  20.151  0.00  0.00    -0.001 C 
ATOM     10  C   UNL d   1     -23.727  11.581  21.103  0.00  0.00     0.003 C 
ATOM     11  C   UNL d   1     -21.944  11.501  19.380  0.00  0.00     0.033 C 
ATOM     12  C   UNL d   1     -24.768  12.440  20.094  0.00  0.00    -0.017 C 
ATOM     13  C   UNL d   1     -22.784  12.279  18.447  0.00  0.00    -0.023 C 
ATOM     14  C   UNL d   1     -26.158  11.806  20.419  0.00  0.00     0.020 C 
ATOM     15  C   UNL d   1     -25.074  13.970  20.299  0.00  0.00     0.016 C 
ATOM     16  C   UNL d   1     -24.092  12.577  18.642  0.00  0.00    -0.072 C 
ATOM     17  C   UNL d   1     -26.122  14.427  19.208  0.00  0.00     0.033 C 
ATOM     18  C   UNL d   1     -24.707  13.289  17.479  0.00  0.00     0.066 C 
ATOM     19  C   UNL d   1     -25.532  14.517  17.811  0.00  0.00     0.122 C 
ENDROOT
BRANCH   1  20
ATOM     20  O   UNL d   1     -21.190   6.568  21.414  0.00  0.00    -0.381 OA
ATOM     21  H   UNL d   1     -20.875   6.652  20.478  0.00  0.00     0.211 HD
ENDBRANCH   1  20
BRANCH   1  22
ATOM     22  C   UNL d   1     -22.345   6.701  22.863  0.00  0.00     0.184 C 
ATOM     23  O   UNL d   1     -21.280   7.028  23.408  0.00  0.00    -0.292 OA
BRANCH  22  24
ATOM     24  C   UNL d   1     -23.402   5.868  23.673  0.00  0.00     0.245 C 
BRANCH  24  25
ATOM     25  O   UNL d   1     -24.329   5.222  22.820  0.00  0.00    -0.393 OA
ATOM     26  H   UNL d   1     -25.106   5.043  23.385  0.00  0.00     0.209 HD
ENDBRANCH  24  25
ENDBRANCH  22  24
ENDBRANCH   1  22
BRANCH  19  27
ATOM     27  O   UNL d   1     -26.572  14.659  16.834  0.00  0.00    -0.395 OA
ATOM     28  H   UNL d   1     -27.162  15.378  17.129  0.00  0.00     0.210 HD
ENDBRANCH  19  27
TORSDOF 5
ENDMDL
MODEL 9
REMARK VINA RESULT:      -5.8     35.432     36.730
REMARK  5 active torsions:
REMARK  status: ('A' for Active; 'I' for Inactive)
REMARK    1  A    between atoms: C_2  and  O_1 
REMARK    2  A    between atoms: C_3  and  C_2 
REMARK    3  A    between atoms: C_4  and  C_3 
REMARK    4  A    between atoms: C_4  and  O_6 
REMARK    5  A    between atoms: C_24  and  O_25 
ROOT
ATOM      1  C   UNL d   1     -19.602   9.694  21.463  0.00  0.00     0.128 C 
ATOM      2  C   UNL d   1     -18.803   9.856  22.788  0.00  0.00     0.047 C 
ATOM      3  C   UNL d   1     -20.841   8.945  22.139  0.00  0.00    -0.002 C 
ATOM      4  C   UNL d   1     -18.769   8.429  23.345  0.00  0.00     0.009 C 
ATOM      5  C   UNL d   1     -21.602  10.196  22.765  0.00  0.00     0.019 C 
ATOM      6  C   UNL d   1     -22.012   8.119  21.530  0.00  0.00     0.013 C 
ATOM      7  C   UNL d   1     -20.161   7.886  23.028  0.00  0.00     0.002 C 
ATOM      8  C   UNL d   1     -23.039   7.704  22.667  0.00  0.00     0.007 C 
ATOM      9  C   UNL d   1     -20.993   7.549  24.245  0.00  0.00    -0.001 C 
ATOM     10  C   UNL d   1     -22.470   7.075  24.023  0.00  0.00     0.003 C 
ATOM     11  C   UNL d   1     -20.321   6.493  25.119  0.00  0.00     0.033 C 
ATOM     12  C   UNL d   1     -23.241   7.330  25.499  0.00  0.00    -0.017 C 
ATOM     13  C   UNL d   1     -20.933   6.666  26.453  0.00  0.00    -0.023 C 
ATOM     14  C   UNL d   1     -24.144   8.569  25.201  0.00  0.00     0.020 C 
ATOM     15  C   UNL d   1     -24.293   6.320  26.091  0.00  0.00     0.016 C 
ATOM     16  C   UNL d   1     -22.162   7.192  26.682  0.00  0.00    -0.072 C 
ATOM     17  C   UNL d   1     -24.843   6.902  27.453  0.00  0.00     0.033 C 
ATOM     18  C   UNL d   1     -22.470   7.337  28.138  0.00  0.00     0.066 C 
ATOM     19  C   UNL d   1     -23.831   6.837  28.584  0.00  0.00     0.122 C 
ENDROOT
BRANCH   1  20
ATOM     20  O   UNL d   1     -18.273   9.193  20.930  0.00  0.00    -0.381 OA
ATOM     21  H   UNL d   1     -18.503   8.625  20.151  0.00  0.00     0.211 HD
ENDBRANCH   1  20
BRANCH   1  22
ATOM     22  C   UNL d   1     -19.846   9.423  19.969  0.00  0.00     0.184 C 
ATOM     23  O   UNL d   1     -20.625  10.133  19.317  0.00  0.00    -0.292 OA
BRANCH  22  24
ATOM     24  C   UNL d   1     -19.131   8.214  19.266  0.00  0.00     0.245 C 
BRANCH  24  25
ATOM     25  O   UNL d   1     -19.814   7.809  18.093  0.00  0.00    -0.393 OA
ATOM     26  H   UNL d   1     -19.210   8.040  17.360  0.00  0.00     0.209 HD
ENDBRANCH  24  25
ENDBRANCH  22  24
ENDBRANCH   1  22
BRANCH  19  27
ATOM     27  O   UNL d   1     -24.273   7.620  29.701  0.00  0.00    -0.395 OA
ATOM     28  H   UNL d   1     -25.233   7.478  29.803  0.00  0.00     0.210 HD
ENDBRANCH  19  27
TORSDOF 5
ENDMDL
