MODEL 1
REMARK VINA RESULT:      -6.0      0.000      0.000
REMARK  13 active torsions:
REMARK  status: ('A' for Active; 'I' for Inactive)
REMARK    1  A    between atoms: C_2  and  O_1 
REMARK    2  A    between atoms: C_3  and  C_5 
REMARK    3  A    between atoms: C_4  and  O_7 
REMARK    4  A    between atoms: C_5  and  O_9 
REMARK    5  A    between atoms: C_8  and  C_11 
REMARK    6  A    between atoms: C_8  and  O_10 
REMARK    7  A    between atoms: O_9  and  P_12 
REMARK    8  A    between atoms: C_11  and  O_13 
REMARK    9  A    between atoms: P_12  and  O_15 
REMARK   10  A    between atoms: P_12  and  O_16 
REMARK   11  A    between atoms: O_13  and  P_17 
REMARK   12  A    between atoms: P_17  and  O_19 
REMARK   13  A    between atoms: P_17  and  O_20 
ROOT
ATOM      1  C   UNL d   1      26.527  15.060  29.796  0.00  0.00     0.183 C 
ATOM      2  C   UNL d   1      27.204  14.422  31.008  0.00  0.00     0.181 C 
ATOM      3  C   UNL d   1      27.316  16.345  29.553  0.00  0.00     0.213 C 
ATOM      4  O   UNL d   1      27.746  15.506  31.785  0.00  0.00    -0.341 OA
ATOM      5  C   UNL d   1      27.994  16.622  30.928  0.00  0.00     0.213 C 
ENDROOT
BRANCH   5   6
ATOM      6  C   UNL d   1      29.505  16.848  30.898  0.00  0.00     0.251 C 
BRANCH   6   7
ATOM      7  O   UNL d   1      29.832  18.205  31.143  0.00  0.00    -0.292 OA
BRANCH   7   8
ATOM      8  P   UNL d   1      30.406  19.049  29.915  0.00  0.00     0.390 P 
ATOM      9  O   UNL d   1      31.665  18.561  29.296  0.00  0.00    -0.632 OA
BRANCH   8  10
ATOM     10  O   UNL d   1      29.187  19.100  28.884  0.00  0.00    -0.307 OA
ATOM     11  H   UNL d   1      29.501  18.828  28.005  0.00  0.00     0.222 HD
ENDBRANCH   8  10
BRANCH   8  12
ATOM     12  O   UNL d   1      30.469  20.531  30.478  0.00  0.00    -0.307 OA
ATOM     13  H   UNL d   1      30.290  20.561  31.430  0.00  0.00     0.222 HD
ENDBRANCH   8  12
ENDBRANCH   7   8
ENDBRANCH   6   7
ENDBRANCH   5   6
BRANCH   5  14
ATOM     14  O   UNL d   1      27.393  17.752  31.551  0.00  0.00    -0.362 OA
ATOM     15  H   UNL d   1      27.217  18.386  30.837  0.00  0.00     0.213 HD
ENDBRANCH   5  14
BRANCH   3  16
ATOM     16  O   UNL d   1      28.161  16.176  28.413  0.00  0.00    -0.387 OA
ATOM     17  H   UNL d   1      28.906  15.585  28.600  0.00  0.00     0.210 HD
ENDBRANCH   3  16
BRANCH   1  18
ATOM     18  O   UNL d   1      25.173  15.394  30.125  0.00  0.00    -0.390 OA
ATOM     19  H   UNL d   1      24.796  14.637  30.608  0.00  0.00     0.210 HD
ENDBRANCH   1  18
BRANCH   2  20
ATOM     20  C   UNL d   1      28.345  13.468  30.630  0.00  0.00     0.215 C 
BRANCH  20  21
ATOM     21  O   UNL d   1      28.879  12.880  31.815  0.00  0.00    -0.294 OA
BRANCH  21  22
ATOM     22  P   UNL d   1      30.489  13.396  32.181  0.00  0.00     0.390 P 
ATOM     23  O   UNL d   1      31.930  13.858  32.510  0.00  0.00    -0.632 OA
BRANCH  22  24
ATOM     24  O   UNL d   1      29.856  14.276  33.402  0.00  0.00    -0.307 OA
ATOM     25  H   UNL d   1      30.347  15.124  33.406  0.00  0.00     0.222 HD
ENDBRANCH  22  24
BRANCH  22  26
ATOM     26  O   UNL d   1      30.603  12.013  33.046  0.00  0.00    -0.307 OA
ATOM     27  H   UNL d   1      31.526  11.707  32.988  0.00  0.00     0.222 HD
ENDBRANCH  22  26
ENDBRANCH  21  22
ENDBRANCH  20  21
ENDBRANCH   2  20
TORSDOF 13
ENDMDL
MODEL 2
REMARK VINA RESULT:      -6.0      2.061      4.062
REMARK  13 active torsions:
REMARK  status: ('A' for Active; 'I' for Inactive)
REMARK    1  A    between atoms: C_2  and  O_1 
REMARK    2  A    between atoms: C_3  and  C_5 
REMARK    3  A    between atoms: C_4  and  O_7 
REMARK    4  A    between atoms: C_5  and  O_9 
REMARK    5  A    between atoms: C_8  and  C_11 
REMARK    6  A    between atoms: C_8  and  O_10 
REMARK    7  A    between atoms: O_9  and  P_12 
REMARK    8  A    between atoms: C_11  and  O_13 
REMARK    9  A    between atoms: P_12  and  O_15 
REMARK   10  A    between atoms: P_12  and  O_16 
REMARK   11  A    between atoms: O_13  and  P_17 
REMARK   12  A    between atoms: P_17  and  O_19 
REMARK   13  A    between atoms: P_17  and  O_20 
ROOT
ATOM      1  C   UNL d   1      27.711  14.033  32.603  0.00  0.00     0.183 C 
ATOM      2  C   UNL d   1      28.234  13.458  31.288  0.00  0.00     0.181 C 
ATOM      3  C   UNL d   1      28.626  15.222  32.888  0.00  0.00     0.213 C 
ATOM      4  O   UNL d   1      29.641  13.755  31.248  0.00  0.00    -0.341 OA
ATOM      5  C   UNL d   1      29.902  14.909  32.050  0.00  0.00     0.213 C 
ENDROOT
BRANCH   5   6
ATOM      6  C   UNL d   1      30.379  16.018  31.114  0.00  0.00     0.251 C 
BRANCH   6   7
ATOM      7  O   UNL d   1      29.323  16.499  30.299  0.00  0.00    -0.292 OA
BRANCH   7   8
ATOM      8  P   UNL d   1      29.402  18.023  29.829  0.00  0.00     0.390 P 
ATOM      9  O   UNL d   1      30.755  18.629  29.742  0.00  0.00    -0.632 OA
BRANCH   8  10
ATOM     10  O   UNL d   1      28.626  18.032  28.432  0.00  0.00    -0.307 OA
ATOM     11  H   UNL d   1      27.671  18.106  28.599  0.00  0.00     0.222 HD
ENDBRANCH   8  10
BRANCH   8  12
ATOM     12  O   UNL d   1      28.398  18.768  30.807  0.00  0.00    -0.307 OA
ATOM     13  H   UNL d   1      28.343  18.326  31.667  0.00  0.00     0.222 HD
ENDBRANCH   8  12
ENDBRANCH   7   8
ENDBRANCH   6   7
ENDBRANCH   5   6
BRANCH   5  14
ATOM     14  O   UNL d   1      30.981  14.567  32.913  0.00  0.00    -0.362 OA
ATOM     15  H   UNL d   1      31.021  13.597  32.914  0.00  0.00     0.213 HD
ENDBRANCH   5  14
BRANCH   3  16
ATOM     16  O   UNL d   1      27.927  16.437  32.611  0.00  0.00    -0.387 OA
ATOM     17  H   UNL d   1      28.525  17.139  32.313  0.00  0.00     0.210 HD
ENDBRANCH   3  16
BRANCH   1  18
ATOM     18  O   UNL d   1      27.863  13.062  33.645  0.00  0.00    -0.390 OA
ATOM     19  H   UNL d   1      28.322  13.500  34.385  0.00  0.00     0.210 HD
ENDBRANCH   1  18
BRANCH   2  20
ATOM     20  C   UNL d   1      27.564  14.072  30.051  0.00  0.00     0.215 C 
BRANCH  20  21
ATOM     21  O   UNL d   1      26.368  14.743  30.448  0.00  0.00    -0.294 OA
BRANCH  21  22
ATOM     22  P   UNL d   1      25.668  15.712  29.198  0.00  0.00     0.390 P 
ATOM     23  O   UNL d   1      25.043  16.579  28.078  0.00  0.00    -0.632 OA
BRANCH  22  24
ATOM     24  O   UNL d   1      26.201  17.024  30.010  0.00  0.00    -0.307 OA
ATOM     25  H   UNL d   1      26.274  16.749  30.947  0.00  0.00     0.222 HD
ENDBRANCH  22  24
BRANCH  22  26
ATOM     26  O   UNL d   1      27.070  15.464  28.393  0.00  0.00    -0.307 OA
ATOM     27  H   UNL d   1      27.423  16.338  28.144  0.00  0.00     0.222 HD
ENDBRANCH  22  26
ENDBRANCH  21  22
ENDBRANCH  20  21
ENDBRANCH   2  20
TORSDOF 13
ENDMDL
MODEL 3
REMARK VINA RESULT:      -5.6      1.577      2.428
REMARK  13 active torsions:
REMARK  status: ('A' for Active; 'I' for Inactive)
REMARK    1  A    between atoms: C_2  and  O_1 
REMARK    2  A    between atoms: C_3  and  C_5 
REMARK    3  A    between atoms: C_4  and  O_7 
REMARK    4  A    between atoms: C_5  and  O_9 
REMARK    5  A    between atoms: C_8  and  C_11 
REMARK    6  A    between atoms: C_8  and  O_10 
REMARK    7  A    between atoms: O_9  and  P_12 
REMARK    8  A    between atoms: C_11  and  O_13 
REMARK    9  A    between atoms: P_12  and  O_15 
REMARK   10  A    between atoms: P_12  and  O_16 
REMARK   11  A    between atoms: O_13  and  P_17 
REMARK   12  A    between atoms: P_17  and  O_19 
REMARK   13  A    between atoms: P_17  and  O_20 
ROOT
ATOM      1  C   UNL d   1      26.866  16.028  30.073  0.00  0.00     0.183 C 
ATOM      2  C   UNL d   1      27.668  16.844  31.086  0.00  0.00     0.181 C 
ATOM      3  C   UNL d   1      27.866  15.713  28.963  0.00  0.00     0.213 C 
ATOM      4  O   UNL d   1      28.683  17.535  30.336  0.00  0.00    -0.341 OA
ATOM      5  C   UNL d   1      28.963  16.805  29.139  0.00  0.00     0.213 C 
ENDROOT
BRANCH   5   6
ATOM      6  C   UNL d   1      30.402  16.302  29.237  0.00  0.00     0.251 C 
BRANCH   6   7
ATOM      7  O   UNL d   1      31.086  16.896  30.327  0.00  0.00    -0.292 OA
BRANCH   7   8
ATOM      8  P   UNL d   1      31.883  18.248  30.037  0.00  0.00     0.390 P 
ATOM      9  O   UNL d   1      31.299  19.501  30.581  0.00  0.00    -0.632 OA
BRANCH   8  10
ATOM     10  O   UNL d   1      33.351  17.953  30.597  0.00  0.00    -0.307 OA
ATOM     11  H   UNL d   1      33.749  17.232  30.081  0.00  0.00     0.222 HD
ENDBRANCH   8  10
BRANCH   8  12
ATOM     12  O   UNL d   1      32.084  18.233  28.463  0.00  0.00    -0.307 OA
ATOM     13  H   UNL d   1      31.492  18.859  28.021  0.00  0.00     0.222 HD
ENDBRANCH   8  12
ENDBRANCH   7   8
ENDBRANCH   6   7
ENDBRANCH   5   6
BRANCH   5  14
ATOM     14  O   UNL d   1      28.896  17.742  28.069  0.00  0.00    -0.362 OA
ATOM     15  H   UNL d   1      29.715  17.622  27.561  0.00  0.00     0.213 HD
ENDBRANCH   5  14
BRANCH   3  16
ATOM     16  O   UNL d   1      28.265  14.344  29.056  0.00  0.00    -0.387 OA
ATOM     17  H   UNL d   1      28.018  13.840  28.266  0.00  0.00     0.210 HD
ENDBRANCH   3  16
BRANCH   1  18
ATOM     18  O   UNL d   1      25.808  16.834  29.539  0.00  0.00    -0.390 OA
ATOM     19  H   UNL d   1      25.366  16.310  28.846  0.00  0.00     0.210 HD
ENDBRANCH   1  18
BRANCH   2  20
ATOM     20  C   UNL d   1      28.348  15.978  32.155  0.00  0.00     0.215 C 
BRANCH  20  21
ATOM     21  O   UNL d   1      27.858  14.641  32.060  0.00  0.00    -0.294 OA
BRANCH  21  22
ATOM     22  P   UNL d   1      28.993  13.446  32.585  0.00  0.00     0.390 P 
ATOM     23  O   UNL d   1      30.009  12.377  33.056  0.00  0.00    -0.632 OA
BRANCH  22  24
ATOM     24  O   UNL d   1      29.675  14.602  33.515  0.00  0.00    -0.307 OA
ATOM     25  H   UNL d   1      29.265  14.512  34.400  0.00  0.00     0.222 HD
ENDBRANCH  22  24
BRANCH  22  26
ATOM     26  O   UNL d   1      27.857  13.030  33.685  0.00  0.00    -0.307 OA
ATOM     27  H   UNL d   1      27.201  12.470  33.230  0.00  0.00     0.222 HD
ENDBRANCH  22  26
ENDBRANCH  21  22
ENDBRANCH  20  21
ENDBRANCH   2  20
TORSDOF 13
ENDMDL
MODEL 4
REMARK VINA RESULT:      -5.5      3.155      6.406
REMARK  13 active torsions:
REMARK  status: ('A' for Active; 'I' for Inactive)
REMARK    1  A    between atoms: C_2  and  O_1 
REMARK    2  A    between atoms: C_3  and  C_5 
REMARK    3  A    between atoms: C_4  and  O_7 
REMARK    4  A    between atoms: C_5  and  O_9 
REMARK    5  A    between atoms: C_8  and  C_11 
REMARK    6  A    between atoms: C_8  and  O_10 
REMARK    7  A    between atoms: O_9  and  P_12 
REMARK    8  A    between atoms: C_11  and  O_13 
REMARK    9  A    between atoms: P_12  and  O_15 
REMARK   10  A    between atoms: P_12  and  O_16 
REMARK   11  A    between atoms: O_13  and  P_17 
REMARK   12  A    between atoms: P_17  and  O_19 
REMARK   13  A    between atoms: P_17  and  O_20 
ROOT
ATOM      1  C   UNL d   1      27.013  14.797  30.309  0.00  0.00     0.183 C 
ATOM      2  C   UNL d   1      27.279  16.037  29.457  0.00  0.00     0.181 C 
ATOM      3  C   UNL d   1      25.647  14.300  29.841  0.00  0.00     0.213 C 
ATOM      4  O   UNL d   1      25.989  16.595  29.142  0.00  0.00    -0.341 OA
ATOM      5  C   UNL d   1      25.005  15.559  29.187  0.00  0.00     0.213 C 
ENDROOT
BRANCH   5   6
ATOM      6  C   UNL d   1      24.467  15.380  27.769  0.00  0.00     0.251 C 
BRANCH   6   7
ATOM      7  O   UNL d   1      23.054  15.485  27.733  0.00  0.00    -0.292 OA
BRANCH   7   8
ATOM      8  P   UNL d   1      22.222  14.123  27.694  0.00  0.00     0.390 P 
ATOM      9  O   UNL d   1      21.047  14.080  26.786  0.00  0.00    -0.632 OA
BRANCH   8  10
ATOM     10  O   UNL d   1      23.319  13.016  27.343  0.00  0.00    -0.307 OA
ATOM     11  H   UNL d   1      24.184  13.306  27.680  0.00  0.00     0.222 HD
ENDBRANCH   8  10
BRANCH   8  12
ATOM     12  O   UNL d   1      21.897  13.841  29.222  0.00  0.00    -0.307 OA
ATOM     13  H   UNL d   1      22.704  13.728  29.744  0.00  0.00     0.222 HD
ENDBRANCH   8  12
ENDBRANCH   7   8
ENDBRANCH   6   7
ENDBRANCH   5   6
BRANCH   5  14
ATOM     14  O   UNL d   1      23.944  16.046  30.002  0.00  0.00    -0.362 OA
ATOM     15  H   UNL d   1      24.204  16.943  30.267  0.00  0.00     0.213 HD
ENDBRANCH   5  14
BRANCH   3  16
ATOM     16  O   UNL d   1      25.817  13.138  29.026  0.00  0.00    -0.387 OA
ATOM     17  H   UNL d   1      26.501  12.548  29.376  0.00  0.00     0.210 HD
ENDBRANCH   3  16
BRANCH   1  18
ATOM     18  O   UNL d   1      26.929  15.173  31.689  0.00  0.00    -0.390 OA
ATOM     19  H   UNL d   1      26.699  14.372  32.194  0.00  0.00     0.210 HD
ENDBRANCH   1  18
BRANCH   2  20
ATOM     20  C   UNL d   1      28.013  15.723  28.146  0.00  0.00     0.215 C 
BRANCH  20  21
ATOM     21  O   UNL d   1      28.722  16.884  27.714  0.00  0.00    -0.294 OA
BRANCH  21  22
ATOM     22  P   UNL d   1      29.750  17.562  28.930  0.00  0.00     0.390 P 
ATOM     23  O   UNL d   1      30.669  18.170  30.017  0.00  0.00    -0.632 OA
BRANCH  22  24
ATOM     24  O   UNL d   1      30.917  17.658  27.793  0.00  0.00    -0.307 OA
ATOM     25  H   UNL d   1      30.632  17.069  27.064  0.00  0.00     0.222 HD
ENDBRANCH  22  24
BRANCH  22  26
ATOM     26  O   UNL d   1      29.055  18.991  28.542  0.00  0.00    -0.307 OA
ATOM     27  H   UNL d   1      28.313  18.801  27.940  0.00  0.00     0.222 HD
ENDBRANCH  22  26
ENDBRANCH  21  22
ENDBRANCH  20  21
ENDBRANCH   2  20
TORSDOF 13
ENDMDL
MODEL 5
REMARK VINA RESULT:      -5.5      1.864      2.504
REMARK  13 active torsions:
REMARK  status: ('A' for Active; 'I' for Inactive)
REMARK    1  A    between atoms: C_2  and  O_1 
REMARK    2  A    between atoms: C_3  and  C_5 
REMARK    3  A    between atoms: C_4  and  O_7 
REMARK    4  A    between atoms: C_5  and  O_9 
REMARK    5  A    between atoms: C_8  and  C_11 
REMARK    6  A    between atoms: C_8  and  O_10 
REMARK    7  A    between atoms: O_9  and  P_12 
REMARK    8  A    between atoms: C_11  and  O_13 
REMARK    9  A    between atoms: P_12  and  O_15 
REMARK   10  A    between atoms: P_12  and  O_16 
REMARK   11  A    between atoms: O_13  and  P_17 
REMARK   12  A    between atoms: P_17  and  O_19 
REMARK   13  A    between atoms: P_17  and  O_20 
ROOT
ATOM      1  C   UNL d   1      27.594  13.406  32.162  0.00  0.00     0.183 C 
ATOM      2  C   UNL d   1      28.937  13.458  32.888  0.00  0.00     0.181 C 
ATOM      3  C   UNL d   1      27.467  14.775  31.498  0.00  0.00     0.213 C 
ATOM      4  O   UNL d   1      29.155  14.838  33.235  0.00  0.00    -0.341 OA
ATOM      5  C   UNL d   1      28.436  15.672  32.324  0.00  0.00     0.213 C 
ENDROOT
BRANCH   5   6
ATOM      6  C   UNL d   1      29.466  16.465  31.521  0.00  0.00     0.251 C 
BRANCH   6   7
ATOM      7  O   UNL d   1      28.855  17.505  30.778  0.00  0.00    -0.292 OA
BRANCH   7   8
ATOM      8  P   UNL d   1      29.819  18.473  29.952  0.00  0.00     0.390 P 
ATOM      9  O   UNL d   1      31.212  18.006  29.733  0.00  0.00    -0.632 OA
BRANCH   8  10
ATOM     10  O   UNL d   1      29.028  18.726  28.586  0.00  0.00    -0.307 OA
ATOM     11  H   UNL d   1      29.116  19.661  28.336  0.00  0.00     0.222 HD
ENDBRANCH   8  10
BRANCH   8  12
ATOM     12  O   UNL d   1      29.691  19.863  30.708  0.00  0.00    -0.307 OA
ATOM     13  H   UNL d   1      28.928  20.371  30.395  0.00  0.00     0.222 HD
ENDBRANCH   8  12
ENDBRANCH   7   8
ENDBRANCH   6   7
ENDBRANCH   5   6
BRANCH   5  14
ATOM     14  O   UNL d   1      27.694  16.592  33.118  0.00  0.00    -0.362 OA
ATOM     15  H   UNL d   1      27.065  16.055  33.626  0.00  0.00     0.213 HD
ENDBRANCH   5  14
BRANCH   3  16
ATOM     16  O   UNL d   1      27.707  14.647  30.095  0.00  0.00    -0.387 OA
ATOM     17  H   UNL d   1      27.527  15.473  29.621  0.00  0.00     0.210 HD
ENDBRANCH   3  16
BRANCH   1  18
ATOM     18  O   UNL d   1      26.539  13.247  33.119  0.00  0.00    -0.390 OA
ATOM     19  H   UNL d   1      26.901  13.484  33.992  0.00  0.00     0.210 HD
ENDBRANCH   1  18
BRANCH   2  20
ATOM     20  C   UNL d   1      30.110  12.976  32.022  0.00  0.00     0.215 C 
BRANCH  20  21
ATOM     21  O   UNL d   1      30.853  11.994  32.743  0.00  0.00    -0.294 OA
BRANCH  21  22
ATOM     22  P   UNL d   1      31.732  10.904  31.726  0.00  0.00     0.390 P 
ATOM     23  O   UNL d   1      32.517   9.929  30.816  0.00  0.00    -0.632 OA
BRANCH  22  24
ATOM     24  O   UNL d   1      32.654  10.544  33.024  0.00  0.00    -0.307 OA
ATOM     25  H   UNL d   1      32.206   9.798  33.474  0.00  0.00     0.222 HD
ENDBRANCH  22  24
BRANCH  22  26
ATOM     26  O   UNL d   1      30.557   9.823  32.080  0.00  0.00    -0.307 OA
ATOM     27  H   UNL d   1      30.804   9.387  32.917  0.00  0.00     0.222 HD
ENDBRANCH  22  26
ENDBRANCH  21  22
ENDBRANCH  20  21
ENDBRANCH   2  20
TORSDOF 13
ENDMDL
MODEL 6
REMARK VINA RESULT:      -5.2     30.170     32.520
REMARK  13 active torsions:
REMARK  status: ('A' for Active; 'I' for Inactive)
REMARK    1  A    between atoms: C_2  and  O_1 
REMARK    2  A    between atoms: C_3  and  C_5 
REMARK    3  A    between atoms: C_4  and  O_7 
REMARK    4  A    between atoms: C_5  and  O_9 
REMARK    5  A    between atoms: C_8  and  C_11 
REMARK    6  A    between atoms: C_8  and  O_10 
REMARK    7  A    between atoms: O_9  and  P_12 
REMARK    8  A    between atoms: C_11  and  O_13 
REMARK    9  A    between atoms: P_12  and  O_15 
REMARK   10  A    between atoms: P_12  and  O_16 
REMARK   11  A    between atoms: O_13  and  P_17 
REMARK   12  A    between atoms: P_17  and  O_19 
REMARK   13  A    between atoms: P_17  and  O_20 
ROOT
ATOM      1  C   UNL d   1       5.924  18.060   5.566  0.00  0.00     0.183 C 
ATOM      2  C   UNL d   1       5.340  17.636   6.913  0.00  0.00     0.181 C 
ATOM      3  C   UNL d   1       6.153  19.563   5.707  0.00  0.00     0.213 C 
ATOM      4  O   UNL d   1       4.633  18.781   7.425  0.00  0.00    -0.341 OA
ATOM      5  C   UNL d   1       5.198  19.971   6.867  0.00  0.00     0.213 C 
ENDROOT
BRANCH   5   6
ATOM      6  C   UNL d   1       5.831  20.756   8.014  0.00  0.00     0.251 C 
BRANCH   6   7
ATOM      7  O   UNL d   1       6.227  22.052   7.599  0.00  0.00    -0.292 OA
BRANCH   7   8
ATOM      8  P   UNL d   1       7.674  22.552   8.052  0.00  0.00     0.390 P 
ATOM      9  O   UNL d   1       7.774  23.195   9.387  0.00  0.00    -0.632 OA
BRANCH   8  10
ATOM     10  O   UNL d   1       8.587  21.246   7.922  0.00  0.00    -0.307 OA
ATOM     11  H   UNL d   1       8.045  20.511   7.587  0.00  0.00     0.222 HD
ENDBRANCH   8  10
BRANCH   8  12
ATOM     12  O   UNL d   1       8.155  23.453   6.838  0.00  0.00    -0.307 OA
ATOM     13  H   UNL d   1       7.667  24.289   6.797  0.00  0.00     0.222 HD
ENDBRANCH   8  12
ENDBRANCH   7   8
ENDBRANCH   6   7
ENDBRANCH   5   6
BRANCH   5  14
ATOM     14  O   UNL d   1       4.109  20.734   6.358  0.00  0.00    -0.362 OA
ATOM     15  H   UNL d   1       4.247  20.785   5.399  0.00  0.00     0.213 HD
ENDBRANCH   5  14
BRANCH   3  16
ATOM     16  O   UNL d   1       7.550  19.817   5.871  0.00  0.00    -0.387 OA
ATOM     17  H   UNL d   1       7.854  20.545   5.309  0.00  0.00     0.210 HD
ENDBRANCH   3  16
BRANCH   1  18
ATOM     18  O   UNL d   1       4.960  17.826   4.532  0.00  0.00    -0.390 OA
ATOM     19  H   UNL d   1       4.093  17.718   4.962  0.00  0.00     0.210 HD
ENDBRANCH   1  18
BRANCH   2  20
ATOM     20  C   UNL d   1       6.410  17.221   7.931  0.00  0.00     0.215 C 
BRANCH  20  21
ATOM     21  O   UNL d   1       7.656  17.042   7.258  0.00  0.00    -0.294 OA
BRANCH  21  22
ATOM     22  P   UNL d   1       9.032  17.454   8.222  0.00  0.00     0.390 P 
ATOM     23  O   UNL d   1      10.262  17.824   9.086  0.00  0.00    -0.632 OA
BRANCH  22  24
ATOM     24  O   UNL d   1       9.551  18.365   6.971  0.00  0.00    -0.307 OA
ATOM     25  H   UNL d   1      10.491  18.567   7.156  0.00  0.00     0.222 HD
ENDBRANCH  22  24
BRANCH  22  26
ATOM     26  O   UNL d   1       8.078  18.620   8.861  0.00  0.00    -0.307 OA
ATOM     27  H   UNL d   1       8.663  19.281   9.275  0.00  0.00     0.222 HD
ENDBRANCH  22  26
ENDBRANCH  21  22
ENDBRANCH  20  21
ENDBRANCH   2  20
TORSDOF 13
ENDMDL
MODEL 7
REMARK VINA RESULT:      -5.2     11.504     13.820
REMARK  13 active torsions:
REMARK  status: ('A' for Active; 'I' for Inactive)
REMARK    1  A    between atoms: C_2  and  O_1 
REMARK    2  A    between atoms: C_3  and  C_5 
REMARK    3  A    between atoms: C_4  and  O_7 
REMARK    4  A    between atoms: C_5  and  O_9 
REMARK    5  A    between atoms: C_8  and  C_11 
REMARK    6  A    between atoms: C_8  and  O_10 
REMARK    7  A    between atoms: O_9  and  P_12 
REMARK    8  A    between atoms: C_11  and  O_13 
REMARK    9  A    between atoms: P_12  and  O_15 
REMARK   10  A    between atoms: P_12  and  O_16 
REMARK   11  A    between atoms: O_13  and  P_17 
REMARK   12  A    between atoms: P_17  and  O_19 
REMARK   13  A    between atoms: P_17  and  O_20 
ROOT
ATOM      1  C   UNL d   1      24.526  15.814  20.253  0.00  0.00     0.183 C 
ATOM      2  C   UNL d   1      24.207  17.168  20.887  0.00  0.00     0.181 C 
ATOM      3  C   UNL d   1      24.160  15.989  18.780  0.00  0.00     0.213 C 
ATOM      4  O   UNL d   1      23.133  17.733  20.113  0.00  0.00    -0.341 OA
ATOM      5  C   UNL d   1      23.169  17.190  18.791  0.00  0.00     0.213 C 
ENDROOT
BRANCH   5   6
ATOM      6  C   UNL d   1      23.493  18.337  17.836  0.00  0.00     0.251 C 
BRANCH   6   7
ATOM      7  O   UNL d   1      23.190  17.996  16.494  0.00  0.00    -0.292 OA
BRANCH   7   8
ATOM      8  P   UNL d   1      21.802  18.519  15.905  0.00  0.00     0.390 P 
ATOM      9  O   UNL d   1      20.935  19.300  16.824  0.00  0.00    -0.632 OA
BRANCH   8  10
ATOM     10  O   UNL d   1      22.225  19.341  14.601  0.00  0.00    -0.307 OA
ATOM     11  H   UNL d   1      23.170  19.195  14.426  0.00  0.00     0.222 HD
ENDBRANCH   8  10
BRANCH   8  12
ATOM     12  O   UNL d   1      21.133  17.210  15.307  0.00  0.00    -0.307 OA
ATOM     13  H   UNL d   1      20.326  17.415  14.811  0.00  0.00     0.222 HD
ENDBRANCH   8  12
ENDBRANCH   7   8
ENDBRANCH   6   7
ENDBRANCH   5   6
BRANCH   5  14
ATOM     14  O   UNL d   1      21.850  16.738  18.504  0.00  0.00    -0.362 OA
ATOM     15  H   UNL d   1      21.929  15.788  18.324  0.00  0.00     0.213 HD
ENDBRANCH   5  14
BRANCH   3  16
ATOM     16  O   UNL d   1      25.354  16.115  18.005  0.00  0.00    -0.387 OA
ATOM     17  H   UNL d   1      25.785  15.259  17.862  0.00  0.00     0.210 HD
ENDBRANCH   3  16
BRANCH   1  18
ATOM     18  O   UNL d   1      23.688  14.806  20.829  0.00  0.00    -0.390 OA
ATOM     19  H   UNL d   1      24.187  13.969  20.811  0.00  0.00     0.210 HD
ENDBRANCH   1  18
BRANCH   2  20
ATOM     20  C   UNL d   1      25.395  18.139  20.866  0.00  0.00     0.215 C 
BRANCH  20  21
ATOM     21  O   UNL d   1      26.584  17.420  20.540  0.00  0.00    -0.294 OA
BRANCH  21  22
ATOM     22  P   UNL d   1      27.866  18.427  19.959  0.00  0.00     0.390 P 
ATOM     23  O   UNL d   1      29.012  19.328  19.439  0.00  0.00    -0.632 OA
BRANCH  22  24
ATOM     24  O   UNL d   1      27.211  18.284  18.470  0.00  0.00    -0.307 OA
ATOM     25  H   UNL d   1      27.222  19.183  18.083  0.00  0.00     0.222 HD
ENDBRANCH  22  24
BRANCH  22  26
ATOM     26  O   UNL d   1      26.919  19.681  20.411  0.00  0.00    -0.307 OA
ATOM     27  H   UNL d   1      26.870  19.673  21.385  0.00  0.00     0.222 HD
ENDBRANCH  22  26
ENDBRANCH  21  22
ENDBRANCH  20  21
ENDBRANCH   2  20
TORSDOF 13
ENDMDL
MODEL 8
REMARK VINA RESULT:      -5.2      1.475      2.130
REMARK  13 active torsions:
REMARK  status: ('A' for Active; 'I' for Inactive)
REMARK    1  A    between atoms: C_2  and  O_1 
REMARK    2  A    between atoms: C_3  and  C_5 
REMARK    3  A    between atoms: C_4  and  O_7 
REMARK    4  A    between atoms: C_5  and  O_9 
REMARK    5  A    between atoms: C_8  and  C_11 
REMARK    6  A    between atoms: C_8  and  O_10 
REMARK    7  A    between atoms: O_9  and  P_12 
REMARK    8  A    between atoms: C_11  and  O_13 
REMARK    9  A    between atoms: P_12  and  O_15 
REMARK   10  A    between atoms: P_12  and  O_16 
REMARK   11  A    between atoms: O_13  and  P_17 
REMARK   12  A    between atoms: P_17  and  O_19 
REMARK   13  A    between atoms: P_17  and  O_20 
ROOT
ATOM      1  C   UNL d   1      27.408  14.262  31.048  0.00  0.00     0.183 C 
ATOM      2  C   UNL d   1      28.563  14.592  31.992  0.00  0.00     0.181 C 
ATOM      3  C   UNL d   1      27.408  15.403  30.034  0.00  0.00     0.213 C 
ATOM      4  O   UNL d   1      28.681  16.027  31.999  0.00  0.00    -0.341 OA
ATOM      5  C   UNL d   1      28.163  16.548  30.772  0.00  0.00     0.213 C 
ENDROOT
BRANCH   5   6
ATOM      6  C   UNL d   1      29.331  17.179  30.016  0.00  0.00     0.251 C 
BRANCH   6   7
ATOM      7  O   UNL d   1      30.353  17.604  30.901  0.00  0.00    -0.292 OA
BRANCH   7   8
ATOM      8  P   UNL d   1      30.986  19.047  30.645  0.00  0.00     0.390 P 
ATOM      9  O   UNL d   1      30.875  20.034  31.750  0.00  0.00    -0.632 OA
BRANCH   8  10
ATOM     10  O   UNL d   1      32.501  18.733  30.243  0.00  0.00    -0.307 OA
ATOM     11  H   UNL d   1      33.026  18.609  31.052  0.00  0.00     0.222 HD
ENDBRANCH   8  10
BRANCH   8  12
ATOM     12  O   UNL d   1      30.333  19.503  29.273  0.00  0.00    -0.307 OA
ATOM     13  H   UNL d   1      30.225  20.465  29.231  0.00  0.00     0.222 HD
ENDBRANCH   8  12
ENDBRANCH   7   8
ENDBRANCH   6   7
ENDBRANCH   5   6
BRANCH   5  14
ATOM     14  O   UNL d   1      27.254  17.585  31.125  0.00  0.00    -0.362 OA
ATOM     15  H   UNL d   1      27.776  18.238  31.618  0.00  0.00     0.213 HD
ENDBRANCH   5  14
BRANCH   3  16
ATOM     16  O   UNL d   1      27.947  14.938  28.794  0.00  0.00    -0.387 OA
ATOM     17  H   UNL d   1      28.490  15.613  28.360  0.00  0.00     0.210 HD
ENDBRANCH   3  16
BRANCH   1  18
ATOM     18  O   UNL d   1      26.174  14.279  31.776  0.00  0.00    -0.390 OA
ATOM     19  H   UNL d   1      25.488  13.905  31.192  0.00  0.00     0.210 HD
ENDBRANCH   1  18
BRANCH   2  20
ATOM     20  C   UNL d   1      29.901  13.989  31.544  0.00  0.00     0.215 C 
BRANCH  20  21
ATOM     21  O   UNL d   1      30.958  14.569  32.308  0.00  0.00    -0.294 OA
BRANCH  21  22
ATOM     22  P   UNL d   1      32.533  14.248  31.668  0.00  0.00     0.390 P 
ATOM     23  O   UNL d   1      33.943  13.961  31.097  0.00  0.00    -0.632 OA
BRANCH  22  24
ATOM     24  O   UNL d   1      32.615  15.827  31.262  0.00  0.00    -0.307 OA
ATOM     25  H   UNL d   1      33.546  16.094  31.407  0.00  0.00     0.222 HD
ENDBRANCH  22  24
BRANCH  22  26
ATOM     26  O   UNL d   1      33.063  14.467  33.200  0.00  0.00    -0.307 OA
ATOM     27  H   UNL d   1      32.657  13.773  33.751  0.00  0.00     0.222 HD
ENDBRANCH  22  26
ENDBRANCH  21  22
ENDBRANCH  20  21
ENDBRANCH   2  20
TORSDOF 13
ENDMDL
MODEL 9
REMARK VINA RESULT:      -5.1     32.383     34.955
REMARK  13 active torsions:
REMARK  status: ('A' for Active; 'I' for Inactive)
REMARK    1  A    between atoms: C_2  and  O_1 
REMARK    2  A    between atoms: C_3  and  C_5 
REMARK    3  A    between atoms: C_4  and  O_7 
REMARK    4  A    between atoms: C_5  and  O_9 
REMARK    5  A    between atoms: C_8  and  C_11 
REMARK    6  A    between atoms: C_8  and  O_10 
REMARK    7  A    between atoms: O_9  and  P_12 
REMARK    8  A    between atoms: C_11  and  O_13 
REMARK    9  A    between atoms: P_12  and  O_15 
REMARK   10  A    between atoms: P_12  and  O_16 
REMARK   11  A    between atoms: O_13  and  P_17 
REMARK   12  A    between atoms: P_17  and  O_19 
REMARK   13  A    between atoms: P_17  and  O_20 
ROOT
ATOM      1  C   UNL d   1       6.948  17.744   5.458  0.00  0.00     0.183 C 
ATOM      2  C   UNL d   1       6.370  17.578   6.863  0.00  0.00     0.181 C 
ATOM      3  C   UNL d   1       5.777  18.259   4.624  0.00  0.00     0.213 C 
ATOM      4  O   UNL d   1       4.971  17.287   6.692  0.00  0.00    -0.341 OA
ATOM      5  C   UNL d   1       4.526  17.826   5.445  0.00  0.00     0.213 C 
ENDROOT
BRANCH   5   6
ATOM      6  C   UNL d   1       3.516  18.928   5.759  0.00  0.00     0.251 C 
BRANCH   6   7
ATOM      7  O   UNL d   1       2.819  19.341   4.596  0.00  0.00    -0.292 OA
BRANCH   7   8
ATOM      8  P   UNL d   1       2.597  20.909   4.397  0.00  0.00     0.390 P 
ATOM      9  O   UNL d   1       1.200  21.366   4.183  0.00  0.00    -0.632 OA
BRANCH   8  10
ATOM     10  O   UNL d   1       3.270  21.557   5.693  0.00  0.00    -0.307 OA
ATOM     11  H   UNL d   1       2.601  21.635   6.394  0.00  0.00     0.222 HD
ENDBRANCH   8  10
BRANCH   8  12
ATOM     12  O   UNL d   1       3.609  21.286   3.235  0.00  0.00    -0.307 OA
ATOM     13  H   UNL d   1       4.214  21.993   3.503  0.00  0.00     0.222 HD
ENDBRANCH   8  12
ENDBRANCH   7   8
ENDBRANCH   6   7
ENDBRANCH   5   6
BRANCH   5  14
ATOM     14  O   UNL d   1       3.839  16.777   4.773  0.00  0.00    -0.362 OA
ATOM     15  H   UNL d   1       4.405  15.993   4.857  0.00  0.00     0.213 HD
ENDBRANCH   5  14
BRANCH   3  16
ATOM     16  O   UNL d   1       5.956  19.652   4.362  0.00  0.00    -0.387 OA
ATOM     17  H   UNL d   1       5.321  19.982   3.708  0.00  0.00     0.210 HD
ENDBRANCH   3  16
BRANCH   1  18
ATOM     18  O   UNL d   1       7.359  16.467   4.955  0.00  0.00    -0.390 OA
ATOM     19  H   UNL d   1       6.629  15.842   5.121  0.00  0.00     0.210 HD
ENDBRANCH   1  18
BRANCH   2  20
ATOM     20  C   UNL d   1       6.509  18.840   7.726  0.00  0.00     0.215 C 
BRANCH  20  21
ATOM     21  O   UNL d   1       7.726  19.506   7.392  0.00  0.00    -0.294 OA
BRANCH  21  22
ATOM     22  P   UNL d   1       7.607  21.231   7.434  0.00  0.00     0.390 P 
ATOM     23  O   UNL d   1       7.499  22.775   7.471  0.00  0.00    -0.632 OA
BRANCH  22  24
ATOM     24  O   UNL d   1       8.215  21.242   5.919  0.00  0.00    -0.307 OA
ATOM     25  H   UNL d   1       9.042  20.719   5.957  0.00  0.00     0.222 HD
ENDBRANCH  22  24
BRANCH  22  26
ATOM     26  O   UNL d   1       6.056  21.011   6.963  0.00  0.00    -0.307 OA
ATOM     27  H   UNL d   1       5.607  21.874   7.024  0.00  0.00     0.222 HD
ENDBRANCH  22  26
ENDBRANCH  21  22
ENDBRANCH  20  21
ENDBRANCH   2  20
TORSDOF 13
ENDMDL
