MODEL 1
REMARK VINA RESULT:      -6.5      0.000      0.000
REMARK  6 active torsions:
REMARK  status: ('A' for Active; 'I' for Inactive)
REMARK    1  A    between atoms: N_1  and  C_2 
REMARK    2  A    between atoms: C_3  and  C_2 
REMARK    3  A    between atoms: C_3  and  C_4 
REMARK    4  A    between atoms: C_3  and  O_5 
REMARK    5  A    between atoms: C_9  and  O_11 
REMARK    6  A    between atoms: C_10  and  O_12 
ROOT
ATOM      1  C   UNL d   1     -15.104 -34.716 -19.290  0.00  0.00    -0.025 A 
ATOM      2  C   UNL d   1     -16.296 -34.169 -18.780  0.00  0.00     0.012 A 
ATOM      3  C   UNL d   1     -15.056 -36.107 -19.524  0.00  0.00     0.049 A 
ATOM      4  C   UNL d   1     -17.395 -34.982 -18.481  0.00  0.00     0.040 A 
ATOM      5  C   UNL d   1     -16.153 -36.907 -19.228  0.00  0.00     0.099 A 
ATOM      6  C   UNL d   1     -17.311 -36.345 -18.695  0.00  0.00     0.098 A 
ENDROOT
BRANCH   1   7
ATOM      7  C   UNL d   1     -13.864 -33.884 -19.585  0.00  0.00     0.179 C 
BRANCH   7   8
ATOM      8  O   UNL d   1     -13.616 -33.941 -20.995  0.00  0.00    -0.389 OA
ATOM      9  H   UNL d   1     -14.026 -34.762 -21.318  0.00  0.00     0.210 HD
ENDBRANCH   7   8
BRANCH   7  10
ATOM     10  C   UNL d   1     -13.923 -32.402 -19.127  0.00  0.00     0.303 C 
BRANCH  10  11
ATOM     11  N   UNL d   1     -13.703 -31.449 -20.222  0.00  0.00     0.081 N 
ATOM     12  H   UNL d   1     -14.022 -31.853 -21.099  0.00  0.00     0.312 HD
ATOM     13  H   UNL d   1     -12.700 -31.280 -20.317  0.00  0.00     0.312 HD
ENDBRANCH  10  11
ENDBRANCH   7  10
ENDBRANCH   1   7
BRANCH   5  14
ATOM     14  O   UNL d   1     -16.148 -38.257 -19.441  0.00  0.00    -0.358 OA
ATOM     15  H   UNL d   1     -16.497 -38.684 -18.641  0.00  0.00     0.217 HD
ENDBRANCH   5  14
BRANCH   6  16
ATOM     16  O   UNL d   1     -18.377 -37.139 -18.381  0.00  0.00    -0.358 OA
ATOM     17  H   UNL d   1     -17.975 -37.945 -17.999  0.00  0.00     0.217 HD
ENDBRANCH   6  16
TORSDOF 6
ENDMDL
MODEL 2
REMARK VINA RESULT:      -6.4      2.802      5.033
REMARK  6 active torsions:
REMARK  status: ('A' for Active; 'I' for Inactive)
REMARK    1  A    between atoms: N_1  and  C_2 
REMARK    2  A    between atoms: C_3  and  C_2 
REMARK    3  A    between atoms: C_3  and  C_4 
REMARK    4  A    between atoms: C_3  and  O_5 
REMARK    5  A    between atoms: C_9  and  O_11 
REMARK    6  A    between atoms: C_10  and  O_12 
ROOT
ATOM      1  C   UNL d   1     -16.766 -35.755 -18.959  0.00  0.00    -0.025 A 
ATOM      2  C   UNL d   1     -15.779 -36.439 -19.692  0.00  0.00     0.012 A 
ATOM      3  C   UNL d   1     -16.577 -34.378 -18.713  0.00  0.00     0.049 A 
ATOM      4  C   UNL d   1     -14.625 -35.786 -20.139  0.00  0.00     0.040 A 
ATOM      5  C   UNL d   1     -15.430 -33.735 -19.162  0.00  0.00     0.099 A 
ATOM      6  C   UNL d   1     -14.454 -34.443 -19.860  0.00  0.00     0.098 A 
ENDROOT
BRANCH   1   7
ATOM      7  C   UNL d   1     -18.015 -36.430 -18.409  0.00  0.00     0.179 C 
BRANCH   7   8
ATOM      8  O   UNL d   1     -17.701 -37.804 -18.152  0.00  0.00    -0.389 OA
ATOM      9  H   UNL d   1     -18.549 -38.265 -18.026  0.00  0.00     0.210 HD
ENDBRANCH   7   8
BRANCH   7  10
ATOM     10  C   UNL d   1     -18.620 -35.786 -17.133  0.00  0.00     0.303 C 
BRANCH  10  11
ATOM     11  N   UNL d   1     -19.883 -36.407 -16.715  0.00  0.00     0.081 N 
ATOM     12  H   UNL d   1     -19.882 -36.544 -15.706  0.00  0.00     0.312 HD
ATOM     13  H   UNL d   1     -19.955 -37.331 -17.144  0.00  0.00     0.312 HD
ENDBRANCH  10  11
ENDBRANCH   7  10
ENDBRANCH   1   7
BRANCH   5  14
ATOM     14  O   UNL d   1     -15.209 -32.404 -18.946  0.00  0.00    -0.358 OA
ATOM     15  H   UNL d   1     -14.924 -32.010 -19.788  0.00  0.00     0.217 HD
ENDBRANCH   5  14
BRANCH   6  16
ATOM     16  O   UNL d   1     -13.316 -33.813 -20.276  0.00  0.00    -0.358 OA
ATOM     17  H   UNL d   1     -12.670 -34.537 -20.403  0.00  0.00     0.217 HD
ENDBRANCH   6  16
TORSDOF 6
ENDMDL
MODEL 3
REMARK VINA RESULT:      -5.5      1.538      2.359
REMARK  6 active torsions:
REMARK  status: ('A' for Active; 'I' for Inactive)
REMARK    1  A    between atoms: N_1  and  C_2 
REMARK    2  A    between atoms: C_3  and  C_2 
REMARK    3  A    between atoms: C_3  and  C_4 
REMARK    4  A    between atoms: C_3  and  O_5 
REMARK    5  A    between atoms: C_9  and  O_11 
REMARK    6  A    between atoms: C_10  and  O_12 
ROOT
ATOM      1  C   UNL d   1     -14.917 -33.850 -19.343  0.00  0.00    -0.025 A 
ATOM      2  C   UNL d   1     -14.482 -35.144 -19.682  0.00  0.00     0.012 A 
ATOM      3  C   UNL d   1     -16.193 -33.708 -18.756  0.00  0.00     0.049 A 
ATOM      4  C   UNL d   1     -15.301 -36.260 -19.476  0.00  0.00     0.040 A 
ATOM      5  C   UNL d   1     -16.999 -34.821 -18.552  0.00  0.00     0.099 A 
ATOM      6  C   UNL d   1     -16.557 -36.089 -18.925  0.00  0.00     0.098 A 
ENDROOT
BRANCH   1   7
ATOM      7  C   UNL d   1     -14.086 -32.599 -19.591  0.00  0.00     0.179 C 
BRANCH   7   8
ATOM      8  O   UNL d   1     -14.662 -31.526 -18.836  0.00  0.00    -0.389 OA
ATOM      9  H   UNL d   1     -14.098 -31.401 -18.052  0.00  0.00     0.210 HD
ENDBRANCH   7   8
BRANCH   7  10
ATOM     10  C   UNL d   1     -12.575 -32.717 -19.257  0.00  0.00     0.303 C 
BRANCH  10  11
ATOM     11  N   UNL d   1     -11.952 -31.429 -18.930  0.00  0.00     0.081 N 
ATOM     12  H   UNL d   1     -12.673 -30.743 -18.715  0.00  0.00     0.312 HD
ATOM     13  H   UNL d   1     -11.448 -31.088 -19.750  0.00  0.00     0.312 HD
ENDBRANCH  10  11
ENDBRANCH   7  10
ENDBRANCH   1   7
BRANCH   5  14
ATOM     14  O   UNL d   1     -18.239 -34.729 -17.986  0.00  0.00    -0.358 OA
ATOM     15  H   UNL d   1     -18.897 -34.827 -18.695  0.00  0.00     0.217 HD
ENDBRANCH   5  14
BRANCH   6  16
ATOM     16  O   UNL d   1     -17.363 -37.177 -18.747  0.00  0.00    -0.358 OA
ATOM     17  H   UNL d   1     -17.178 -37.469 -17.832  0.00  0.00     0.217 HD
ENDBRANCH   6  16
TORSDOF 6
ENDMDL
MODEL 4
REMARK VINA RESULT:      -5.4     30.601     31.236
REMARK  6 active torsions:
REMARK  status: ('A' for Active; 'I' for Inactive)
REMARK    1  A    between atoms: N_1  and  C_2 
REMARK    2  A    between atoms: C_3  and  C_2 
REMARK    3  A    between atoms: C_3  and  C_4 
REMARK    4  A    between atoms: C_3  and  O_5 
REMARK    5  A    between atoms: C_9  and  O_11 
REMARK    6  A    between atoms: C_10  and  O_12 
ROOT
ATOM      1  C   UNL d   1     -34.653 -10.577 -15.943  0.00  0.00    -0.025 A 
ATOM      2  C   UNL d   1     -35.154 -10.099 -17.168  0.00  0.00     0.012 A 
ATOM      3  C   UNL d   1     -33.338 -10.218 -15.577  0.00  0.00     0.049 A 
ATOM      4  C   UNL d   1     -34.365  -9.317 -18.018  0.00  0.00     0.040 A 
ATOM      5  C   UNL d   1     -32.561  -9.438 -16.425  0.00  0.00     0.099 A 
ATOM      6  C   UNL d   1     -33.070  -9.003 -17.646  0.00  0.00     0.098 A 
ENDROOT
BRANCH   1   7
ATOM      7  C   UNL d   1     -35.453 -11.470 -15.006  0.00  0.00     0.179 C 
BRANCH   7   8
ATOM      8  O   UNL d   1     -35.635 -12.738 -15.648  0.00  0.00    -0.389 OA
ATOM      9  H   UNL d   1     -34.763 -13.171 -15.664  0.00  0.00     0.210 HD
ENDBRANCH   7   8
BRANCH   7  10
ATOM     10  C   UNL d   1     -34.841 -11.684 -13.596  0.00  0.00     0.303 C 
BRANCH  10  11
ATOM     11  N   UNL d   1     -34.756 -13.098 -13.210  0.00  0.00     0.081 N 
ATOM     12  H   UNL d   1     -35.601 -13.585 -13.503  0.00  0.00     0.312 HD
ATOM     13  H   UNL d   1     -34.710 -13.162 -12.192  0.00  0.00     0.312 HD
ENDBRANCH  10  11
ENDBRANCH   7  10
ENDBRANCH   1   7
BRANCH   5  14
ATOM     14  O   UNL d   1     -31.284  -9.068 -16.108  0.00  0.00    -0.358 OA
ATOM     15  H   UNL d   1     -30.776  -9.018 -16.935  0.00  0.00     0.217 HD
ENDBRANCH   5  14
BRANCH   6  16
ATOM     16  O   UNL d   1     -32.294  -8.260 -18.488  0.00  0.00    -0.358 OA
ATOM     17  H   UNL d   1     -32.925  -7.890 -19.138  0.00  0.00     0.217 HD
ENDBRANCH   6  16
TORSDOF 6
ENDMDL
MODEL 5
REMARK VINA RESULT:      -5.4      2.869      5.083
REMARK  6 active torsions:
REMARK  status: ('A' for Active; 'I' for Inactive)
REMARK    1  A    between atoms: N_1  and  C_2 
REMARK    2  A    between atoms: C_3  and  C_2 
REMARK    3  A    between atoms: C_3  and  C_4 
REMARK    4  A    between atoms: C_3  and  O_5 
REMARK    5  A    between atoms: C_9  and  O_11 
REMARK    6  A    between atoms: C_10  and  O_12 
ROOT
ATOM      1  C   UNL d   1     -14.220 -33.767 -19.300  0.00  0.00    -0.025 A 
ATOM      2  C   UNL d   1     -14.859 -32.538 -19.053  0.00  0.00     0.012 A 
ATOM      3  C   UNL d   1     -12.897 -33.936 -18.837  0.00  0.00     0.049 A 
ATOM      4  C   UNL d   1     -14.195 -31.497 -18.394  0.00  0.00     0.040 A 
ATOM      5  C   UNL d   1     -12.246 -32.898 -18.180  0.00  0.00     0.099 A 
ATOM      6  C   UNL d   1     -12.891 -31.680 -17.974  0.00  0.00     0.098 A 
ENDROOT
BRANCH   1   7
ATOM      7  C   UNL d   1     -14.879 -34.913 -20.055  0.00  0.00     0.179 C 
BRANCH   7   8
ATOM      8  O   UNL d   1     -13.846 -35.787 -20.527  0.00  0.00    -0.389 OA
ATOM      9  H   UNL d   1     -13.839 -36.557 -19.933  0.00  0.00     0.210 HD
ENDBRANCH   7   8
BRANCH   7  10
ATOM     10  C   UNL d   1     -15.927 -35.731 -19.254  0.00  0.00     0.303 C 
BRANCH  10  11
ATOM     11  N   UNL d   1     -15.988 -37.142 -19.655  0.00  0.00     0.081 N 
ATOM     12  H   UNL d   1     -15.153 -37.386 -20.184  0.00  0.00     0.312 HD
ATOM     13  H   UNL d   1     -16.787 -37.275 -20.277  0.00  0.00     0.312 HD
ENDBRANCH  10  11
ENDBRANCH   7  10
ENDBRANCH   1   7
BRANCH   5  14
ATOM     14  O   UNL d   1     -10.967 -33.020 -17.715  0.00  0.00    -0.358 OA
ATOM     15  H   UNL d   1     -11.004 -33.016 -16.743  0.00  0.00     0.217 HD
ENDBRANCH   5  14
BRANCH   6  16
ATOM     16  O   UNL d   1     -12.238 -30.655 -17.353  0.00  0.00    -0.358 OA
ATOM     17  H   UNL d   1     -12.644 -30.611 -16.464  0.00  0.00     0.217 HD
ENDBRANCH   6  16
TORSDOF 6
ENDMDL
MODEL 6
REMARK VINA RESULT:      -5.3     13.865     15.248
REMARK  6 active torsions:
REMARK  status: ('A' for Active; 'I' for Inactive)
REMARK    1  A    between atoms: N_1  and  C_2 
REMARK    2  A    between atoms: C_3  and  C_2 
REMARK    3  A    between atoms: C_3  and  C_4 
REMARK    4  A    between atoms: C_3  and  O_5 
REMARK    5  A    between atoms: C_9  and  O_11 
REMARK    6  A    between atoms: C_10  and  O_12 
ROOT
ATOM      1  C   UNL d   1      -8.056 -27.411 -28.844  0.00  0.00    -0.025 A 
ATOM      2  C   UNL d   1      -8.986 -28.289 -29.432  0.00  0.00     0.012 A 
ATOM      3  C   UNL d   1      -7.774 -26.198 -29.508  0.00  0.00     0.049 A 
ATOM      4  C   UNL d   1      -9.591 -27.987 -30.657  0.00  0.00     0.040 A 
ATOM      5  C   UNL d   1      -8.382 -25.904 -30.723  0.00  0.00     0.099 A 
ATOM      6  C   UNL d   1      -9.276 -26.804 -31.299  0.00  0.00     0.098 A 
ENDROOT
BRANCH   1   7
ATOM      7  C   UNL d   1      -7.333 -27.714 -27.539  0.00  0.00     0.179 C 
BRANCH   7   8
ATOM      8  O   UNL d   1      -5.927 -27.551 -27.763  0.00  0.00    -0.389 OA
ATOM      9  H   UNL d   1      -5.810 -27.408 -28.718  0.00  0.00     0.210 HD
ENDBRANCH   7   8
BRANCH   7  10
ATOM     10  C   UNL d   1      -7.767 -26.862 -26.317  0.00  0.00     0.303 C 
BRANCH  10  11
ATOM     11  N   UNL d   1      -9.177 -27.050 -25.953  0.00  0.00     0.081 N 
ATOM     12  H   UNL d   1      -9.674 -26.165 -26.035  0.00  0.00     0.312 HD
ATOM     13  H   UNL d   1      -9.231 -27.335 -24.973  0.00  0.00     0.312 HD
ENDBRANCH  10  11
ENDBRANCH   7  10
ENDBRANCH   1   7
BRANCH   5  14
ATOM     14  O   UNL d   1      -8.138 -24.741 -31.397  0.00  0.00    -0.358 OA
ATOM     15  H   UNL d   1      -7.201 -24.514 -31.267  0.00  0.00     0.217 HD
ENDBRANCH   5  14
BRANCH   6  16
ATOM     16  O   UNL d   1      -9.851 -26.524 -32.505  0.00  0.00    -0.358 OA
ATOM     17  H   UNL d   1     -10.742 -26.191 -32.278  0.00  0.00     0.217 HD
ENDBRANCH   6  16
TORSDOF 6
ENDMDL
MODEL 7
REMARK VINA RESULT:      -4.8      3.719      6.696
REMARK  6 active torsions:
REMARK  status: ('A' for Active; 'I' for Inactive)
REMARK    1  A    between atoms: N_1  and  C_2 
REMARK    2  A    between atoms: C_3  and  C_2 
REMARK    3  A    between atoms: C_3  and  C_4 
REMARK    4  A    between atoms: C_3  and  O_5 
REMARK    5  A    between atoms: C_9  and  O_11 
REMARK    6  A    between atoms: C_10  and  O_12 
ROOT
ATOM      1  C   UNL d   1     -12.101 -32.546 -19.061  0.00  0.00    -0.025 A 
ATOM      2  C   UNL d   1     -11.649 -32.951 -17.792  0.00  0.00     0.012 A 
ATOM      3  C   UNL d   1     -11.222 -31.800 -19.875  0.00  0.00     0.049 A 
ATOM      4  C   UNL d   1     -10.375 -32.599 -17.331  0.00  0.00     0.040 A 
ATOM      5  C   UNL d   1      -9.957 -31.458 -19.413  0.00  0.00     0.099 A 
ATOM      6  C   UNL d   1      -9.544 -31.845 -18.139  0.00  0.00     0.098 A 
ENDROOT
BRANCH   1   7
ATOM      7  C   UNL d   1     -13.494 -32.860 -19.589  0.00  0.00     0.179 C 
BRANCH   7   8
ATOM      8  O   UNL d   1     -13.579 -32.375 -20.935  0.00  0.00    -0.389 OA
ATOM      9  H   UNL d   1     -14.059 -31.530 -20.898  0.00  0.00     0.210 HD
ENDBRANCH   7   8
BRANCH   7  10
ATOM     10  C   UNL d   1     -13.908 -34.355 -19.548  0.00  0.00     0.303 C 
BRANCH  10  11
ATOM     11  N   UNL d   1     -13.888 -34.997 -20.868  0.00  0.00     0.081 N 
ATOM     12  H   UNL d   1     -14.711 -35.588 -20.975  0.00  0.00     0.312 HD
ATOM     13  H   UNL d   1     -13.071 -35.606 -20.927  0.00  0.00     0.312 HD
ENDBRANCH  10  11
ENDBRANCH   7  10
ENDBRANCH   1   7
BRANCH   5  14
ATOM     14  O   UNL d   1      -9.075 -30.739 -20.169  0.00  0.00    -0.358 OA
ATOM     15  H   UNL d   1      -8.227 -30.716 -19.694  0.00  0.00     0.217 HD
ENDBRANCH   5  14
BRANCH   6  16
ATOM     16  O   UNL d   1      -8.311 -31.483 -17.678  0.00  0.00    -0.358 OA
ATOM     17  H   UNL d   1      -7.799 -32.317 -17.673  0.00  0.00     0.217 HD
ENDBRANCH   6  16
TORSDOF 6
ENDMDL
MODEL 8
REMARK VINA RESULT:      -4.5     13.444     14.869
REMARK  6 active torsions:
REMARK  status: ('A' for Active; 'I' for Inactive)
REMARK    1  A    between atoms: N_1  and  C_2 
REMARK    2  A    between atoms: C_3  and  C_2 
REMARK    3  A    between atoms: C_3  and  C_4 
REMARK    4  A    between atoms: C_3  and  O_5 
REMARK    5  A    between atoms: C_9  and  O_11 
REMARK    6  A    between atoms: C_10  and  O_12 
ROOT
ATOM      1  C   UNL d   1     -21.030 -21.275 -16.365  0.00  0.00    -0.025 A 
ATOM      2  C   UNL d   1     -19.964 -21.797 -15.609  0.00  0.00     0.012 A 
ATOM      3  C   UNL d   1     -21.175 -21.710 -17.700  0.00  0.00     0.049 A 
ATOM      4  C   UNL d   1     -19.052 -22.698 -16.169  0.00  0.00     0.040 A 
ATOM      5  C   UNL d   1     -20.267 -22.608 -18.248  0.00  0.00     0.099 A 
ATOM      6  C   UNL d   1     -19.202 -23.086 -17.487  0.00  0.00     0.098 A 
ENDROOT
BRANCH   1   7
ATOM      7  C   UNL d   1     -22.021 -20.256 -15.819  0.00  0.00     0.179 C 
BRANCH   7   8
ATOM      8  O   UNL d   1     -22.781 -19.743 -16.919  0.00  0.00    -0.389 OA
ATOM      9  H   UNL d   1     -22.204 -19.117 -17.390  0.00  0.00     0.210 HD
ENDBRANCH   7   8
BRANCH   7  10
ATOM     10  C   UNL d   1     -22.983 -20.777 -14.718  0.00  0.00     0.303 C 
BRANCH  10  11
ATOM     11  N   UNL d   1     -23.629 -22.048 -15.069  0.00  0.00     0.081 N 
ATOM     12  H   UNL d   1     -24.423 -22.212 -14.453  0.00  0.00     0.312 HD
ATOM     13  H   UNL d   1     -22.966 -22.810 -14.915  0.00  0.00     0.312 HD
ENDBRANCH  10  11
ENDBRANCH   7  10
ENDBRANCH   1   7
BRANCH   5  14
ATOM     14  O   UNL d   1     -20.371 -23.055 -19.535  0.00  0.00    -0.358 OA
ATOM     15  H   UNL d   1     -20.868 -22.390 -20.041  0.00  0.00     0.217 HD
ENDBRANCH   5  14
BRANCH   6  16
ATOM     16  O   UNL d   1     -18.297 -23.947 -18.038  0.00  0.00    -0.358 OA
ATOM     17  H   UNL d   1     -18.585 -24.040 -18.969  0.00  0.00     0.217 HD
ENDBRANCH   6  16
TORSDOF 6
ENDMDL
MODEL 9
REMARK VINA RESULT:      -4.4     30.921     31.355
REMARK  6 active torsions:
REMARK  status: ('A' for Active; 'I' for Inactive)
REMARK    1  A    between atoms: N_1  and  C_2 
REMARK    2  A    between atoms: C_3  and  C_2 
REMARK    3  A    between atoms: C_3  and  C_4 
REMARK    4  A    between atoms: C_3  and  O_5 
REMARK    5  A    between atoms: C_9  and  O_11 
REMARK    6  A    between atoms: C_10  and  O_12 
ROOT
ATOM      1  C   UNL d   1     -29.507 -12.681  -2.772  0.00  0.00    -0.025 A 
ATOM      2  C   UNL d   1     -29.628 -13.314  -1.521  0.00  0.00     0.012 A 
ATOM      3  C   UNL d   1     -30.649 -12.614  -3.598  0.00  0.00     0.049 A 
ATOM      4  C   UNL d   1     -30.837 -13.892  -1.117  0.00  0.00     0.040 A 
ATOM      5  C   UNL d   1     -31.847 -13.187  -3.188  0.00  0.00     0.099 A 
ATOM      6  C   UNL d   1     -31.933 -13.835  -1.958  0.00  0.00     0.098 A 
ENDROOT
BRANCH   1   7
ATOM      7  C   UNL d   1     -28.203 -12.080  -3.280  0.00  0.00     0.179 C 
BRANCH   7   8
ATOM      8  O   UNL d   1     -28.523 -10.935  -4.079  0.00  0.00    -0.389 OA
ATOM      9  H   UNL d   1     -29.233 -10.459  -3.614  0.00  0.00     0.210 HD
ENDBRANCH   7   8
BRANCH   7  10
ATOM     10  C   UNL d   1     -27.176 -11.681  -2.187  0.00  0.00     0.303 C 
BRANCH  10  11
ATOM     11  N   UNL d   1     -25.915 -12.428  -2.278  0.00  0.00     0.081 N 
ATOM     12  H   UNL d   1     -25.289 -12.139  -1.530  0.00  0.00     0.312 HD
ATOM     13  H   UNL d   1     -25.456 -12.196  -3.161  0.00  0.00     0.312 HD
ENDBRANCH  10  11
ENDBRANCH   7  10
ENDBRANCH   1   7
BRANCH   5  14
ATOM     14  O   UNL d   1     -32.976 -13.143  -3.957  0.00  0.00    -0.358 OA
ATOM     15  H   UNL d   1     -33.719 -13.452  -3.410  0.00  0.00     0.217 HD
ENDBRANCH   5  14
BRANCH   6  16
ATOM     16  O   UNL d   1     -33.104 -14.420  -1.571  0.00  0.00    -0.358 OA
ATOM     17  H   UNL d   1     -32.887 -14.866  -0.728  0.00  0.00     0.217 HD
ENDBRANCH   6  16
TORSDOF 6
ENDMDL
