MODEL 1
REMARK VINA RESULT:      -5.3      0.000      0.000
REMARK  6 active torsions:
REMARK  status: ('A' for Active; 'I' for Inactive)
REMARK    1  A    between atoms: O_1  and  C_2 
REMARK    2  A    between atoms: C_2  and  C_3 
REMARK    3  A    between atoms: C_3  and  C_5 
REMARK    4  A    between atoms: C_5  and  C_6 
REMARK    5  A    between atoms: C_6  and  C_7 
REMARK    6  A    between atoms: C_7  and  O_10 
ROOT
ATOM      1  C   UNL d   1      -4.590   5.605  29.428  0.00  0.00     0.101 C 
ENDROOT
BRANCH   1   2
ATOM      2  C   UNL d   1      -6.057   5.887  29.736  0.00  0.00     0.118 C 
BRANCH   2   3
ATOM      3  C   UNL d   1      -6.630   4.836  30.655  0.00  0.00     0.139 C 
ATOM      4  O   UNL d   1      -6.295   3.663  30.668  0.00  0.00    -0.650 OA
BRANCH   3   5
ATOM      5  O   UNL d   1      -7.574   5.328  31.488  0.00  0.00    -0.776 OA
ATOM      6  H   UNL d   1      -7.950   4.673  32.105  0.00  0.00     0.167 HD
ENDBRANCH   3   5
ENDBRANCH   2   3
ENDBRANCH   1   2
BRANCH   1   7
ATOM      7  C   UNL d   1      -3.698   5.882  30.612  0.00  0.00     0.222 C 
ATOM      8  O   UNL d   1      -3.605   6.952  31.206  0.00  0.00    -0.286 OA
BRANCH   7   9
ATOM      9  C   UNL d   1      -2.842   4.715  31.105  0.00  0.00     0.213 C 
ATOM     10  O   UNL d   1      -1.806   4.866  31.719  0.00  0.00    -0.644 OA
BRANCH   9  11
ATOM     11  O   UNL d   1      -3.392   3.533  30.770  0.00  0.00    -0.771 OA
ATOM     12  H   UNL d   1      -2.714   2.820  30.831  0.00  0.00     0.168 HD
ENDBRANCH   9  11
ENDBRANCH   7   9
ENDBRANCH   1   7
TORSDOF 6
ENDMDL
MODEL 2
REMARK VINA RESULT:      -5.1      1.514      2.200
REMARK  6 active torsions:
REMARK  status: ('A' for Active; 'I' for Inactive)
REMARK    1  A    between atoms: O_1  and  C_2 
REMARK    2  A    between atoms: C_2  and  C_3 
REMARK    3  A    between atoms: C_3  and  C_5 
REMARK    4  A    between atoms: C_5  and  C_6 
REMARK    5  A    between atoms: C_6  and  C_7 
REMARK    6  A    between atoms: C_7  and  O_10 
ROOT
ATOM      1  C   UNL d   1      -5.683   6.109  28.873  0.00  0.00     0.101 C 
ENDROOT
BRANCH   1   2
ATOM      2  C   UNL d   1      -6.529   7.352  29.134  0.00  0.00     0.118 C 
BRANCH   2   3
ATOM      3  C   UNL d   1      -7.655   7.049  30.093  0.00  0.00     0.139 C 
ATOM      4  O   UNL d   1      -8.208   5.967  30.200  0.00  0.00    -0.650 OA
BRANCH   3   5
ATOM      5  O   UNL d   1      -8.002   8.117  30.844  0.00  0.00    -0.776 OA
ATOM      6  H   UNL d   1      -8.554   7.904  31.621  0.00  0.00     0.167 HD
ENDBRANCH   3   5
ENDBRANCH   2   3
ENDBRANCH   1   2
BRANCH   1   7
ATOM      7  C   UNL d   1      -4.823   5.749  30.057  0.00  0.00     0.222 C 
ATOM      8  O   UNL d   1      -4.151   6.532  30.722  0.00  0.00    -0.286 OA
BRANCH   7   9
ATOM      9  C   UNL d   1      -4.799   4.272  30.454  0.00  0.00     0.213 C 
ATOM     10  O   UNL d   1      -3.785   3.690  30.782  0.00  0.00    -0.644 OA
BRANCH   9  11
ATOM     11  O   UNL d   1      -6.029   3.731  30.391  0.00  0.00    -0.771 OA
ATOM     12  H   UNL d   1      -5.960   2.767  30.200  0.00  0.00     0.168 HD
ENDBRANCH   9  11
ENDBRANCH   7   9
ENDBRANCH   1   7
TORSDOF 6
ENDMDL
MODEL 3
REMARK VINA RESULT:      -5.1      2.116      4.181
REMARK  6 active torsions:
REMARK  status: ('A' for Active; 'I' for Inactive)
REMARK    1  A    between atoms: O_1  and  C_2 
REMARK    2  A    between atoms: C_2  and  C_3 
REMARK    3  A    between atoms: C_3  and  C_5 
REMARK    4  A    between atoms: C_5  and  C_6 
REMARK    5  A    between atoms: C_6  and  C_7 
REMARK    6  A    between atoms: C_7  and  O_10 
ROOT
ATOM      1  C   UNL d   1      -2.404   6.649  29.570  0.00  0.00     0.101 C 
ENDROOT
BRANCH   1   2
ATOM      2  C   UNL d   1      -1.543   7.579  30.420  0.00  0.00     0.118 C 
BRANCH   2   3
ATOM      3  C   UNL d   1      -2.099   8.982  30.421  0.00  0.00     0.139 C 
ATOM      4  O   UNL d   1      -1.634   9.918  29.792  0.00  0.00    -0.650 OA
BRANCH   3   5
ATOM      5  O   UNL d   1      -3.193   9.109  31.205  0.00  0.00    -0.776 OA
ATOM      6  H   UNL d   1      -3.450  10.032  31.393  0.00  0.00     0.167 HD
ENDBRANCH   3   5
ENDBRANCH   2   3
ENDBRANCH   1   2
BRANCH   1   7
ATOM      7  C   UNL d   1      -3.466   5.956  30.385  0.00  0.00     0.222 C 
ATOM      8  O   UNL d   1      -4.559   6.424  30.689  0.00  0.00    -0.286 OA
BRANCH   7   9
ATOM      9  C   UNL d   1      -3.135   4.542  30.868  0.00  0.00     0.213 C 
ATOM     10  O   UNL d   1      -3.855   3.586  30.660  0.00  0.00    -0.644 OA
BRANCH   9  11
ATOM     11  O   UNL d   1      -1.966   4.516  31.533  0.00  0.00    -0.771 OA
ATOM     12  H   UNL d   1      -2.112   4.188  32.451  0.00  0.00     0.168 HD
ENDBRANCH   9  11
ENDBRANCH   7   9
ENDBRANCH   1   7
TORSDOF 6
ENDMDL
MODEL 4
REMARK VINA RESULT:      -5.0      2.018      2.826
REMARK  6 active torsions:
REMARK  status: ('A' for Active; 'I' for Inactive)
REMARK    1  A    between atoms: O_1  and  C_2 
REMARK    2  A    between atoms: C_2  and  C_3 
REMARK    3  A    between atoms: C_3  and  C_5 
REMARK    4  A    between atoms: C_5  and  C_6 
REMARK    5  A    between atoms: C_6  and  C_7 
REMARK    6  A    between atoms: C_7  and  O_10 
ROOT
ATOM      1  C   UNL d   1      -5.630   6.000  29.623  0.00  0.00     0.101 C 
ENDROOT
BRANCH   1   2
ATOM      2  C   UNL d   1      -7.133   6.210  29.785  0.00  0.00     0.118 C 
BRANCH   2   3
ATOM      3  C   UNL d   1      -7.468   7.678  29.886  0.00  0.00     0.139 C 
ATOM      4  O   UNL d   1      -7.926   8.223  30.877  0.00  0.00    -0.650 OA
BRANCH   3   5
ATOM      5  O   UNL d   1      -7.204   8.353  28.746  0.00  0.00    -0.776 OA
ATOM      6  H   UNL d   1      -7.055   9.310  28.867  0.00  0.00     0.167 HD
ENDBRANCH   3   5
ENDBRANCH   2   3
ENDBRANCH   1   2
BRANCH   1   7
ATOM      7  C   UNL d   1      -5.169   4.704  30.239  0.00  0.00     0.222 C 
ATOM      8  O   UNL d   1      -5.895   3.812  30.666  0.00  0.00    -0.286 OA
BRANCH   7   9
ATOM      9  C   UNL d   1      -3.656   4.498  30.331  0.00  0.00     0.213 C 
ATOM     10  O   UNL d   1      -3.116   3.969  31.282  0.00  0.00    -0.644 OA
BRANCH   9  11
ATOM     11  O   UNL d   1      -3.033   4.971  29.237  0.00  0.00    -0.771 OA
ATOM     12  H   UNL d   1      -3.675   5.463  28.674  0.00  0.00     0.168 HD
ENDBRANCH   9  11
ENDBRANCH   7   9
ENDBRANCH   1   7
TORSDOF 6
ENDMDL
MODEL 5
REMARK VINA RESULT:      -5.0      2.305      4.004
REMARK  6 active torsions:
REMARK  status: ('A' for Active; 'I' for Inactive)
REMARK    1  A    between atoms: O_1  and  C_2 
REMARK    2  A    between atoms: C_2  and  C_3 
REMARK    3  A    between atoms: C_3  and  C_5 
REMARK    4  A    between atoms: C_5  and  C_6 
REMARK    5  A    between atoms: C_6  and  C_7 
REMARK    6  A    between atoms: C_7  and  O_10 
ROOT
ATOM      1  C   UNL d   1      -1.405   6.588  30.342  0.00  0.00     0.101 C 
ENDROOT
BRANCH   1   2
ATOM      2  C   UNL d   1      -2.647   5.879  29.810  0.00  0.00     0.118 C 
BRANCH   2   3
ATOM      3  C   UNL d   1      -3.358   5.133  30.913  0.00  0.00     0.139 C 
ATOM      4  O   UNL d   1      -4.467   5.410  31.340  0.00  0.00    -0.650 OA
BRANCH   3   5
ATOM      5  O   UNL d   1      -2.634   4.099  31.396  0.00  0.00    -0.776 OA
ATOM      6  H   UNL d   1      -1.876   4.362  31.953  0.00  0.00     0.167 HD
ENDBRANCH   3   5
ENDBRANCH   2   3
ENDBRANCH   1   2
BRANCH   1   7
ATOM      7  C   UNL d   1      -1.744   7.615  31.392  0.00  0.00     0.222 C 
ATOM      8  O   UNL d   1      -1.447   7.553  32.581  0.00  0.00    -0.286 OA
BRANCH   7   9
ATOM      9  C   UNL d   1      -2.527   8.840  30.915  0.00  0.00     0.213 C 
ATOM     10  O   UNL d   1      -3.692   9.033  31.199  0.00  0.00    -0.644 OA
BRANCH   9  11
ATOM     11  O   UNL d   1      -1.758   9.645  30.160  0.00  0.00    -0.771 OA
ATOM     12  H   UNL d   1      -2.171  10.538  30.097  0.00  0.00     0.168 HD
ENDBRANCH   9  11
ENDBRANCH   7   9
ENDBRANCH   1   7
TORSDOF 6
ENDMDL
MODEL 6
REMARK VINA RESULT:      -5.0      1.316      3.643
REMARK  6 active torsions:
REMARK  status: ('A' for Active; 'I' for Inactive)
REMARK    1  A    between atoms: O_1  and  C_2 
REMARK    2  A    between atoms: C_2  and  C_3 
REMARK    3  A    between atoms: C_3  and  C_5 
REMARK    4  A    between atoms: C_5  and  C_6 
REMARK    5  A    between atoms: C_6  and  C_7 
REMARK    6  A    between atoms: C_7  and  O_10 
ROOT
ATOM      1  C   UNL d   1      -3.741   5.496  29.109  0.00  0.00     0.101 C 
ENDROOT
BRANCH   1   2
ATOM      2  C   UNL d   1      -2.532   6.010  29.885  0.00  0.00     0.118 C 
BRANCH   2   3
ATOM      3  C   UNL d   1      -2.559   5.524  31.313  0.00  0.00     0.139 C 
ATOM      4  O   UNL d   1      -2.575   6.246  32.296  0.00  0.00    -0.650 OA
BRANCH   3   5
ATOM      5  O   UNL d   1      -2.564   4.175  31.406  0.00  0.00    -0.776 OA
ATOM      6  H   UNL d   1      -2.349   3.712  30.574  0.00  0.00     0.167 HD
ENDBRANCH   3   5
ENDBRANCH   2   3
ENDBRANCH   1   2
BRANCH   1   7
ATOM      7  C   UNL d   1      -5.043   5.907  29.749  0.00  0.00     0.222 C 
ATOM      8  O   UNL d   1      -5.403   7.059  29.971  0.00  0.00    -0.286 OA
BRANCH   7   9
ATOM      9  C   UNL d   1      -5.988   4.773  30.151  0.00  0.00     0.213 C 
ATOM     10  O   UNL d   1      -5.687   3.912  30.952  0.00  0.00    -0.644 OA
BRANCH   9  11
ATOM     11  O   UNL d   1      -7.165   4.870  29.508  0.00  0.00    -0.771 OA
ATOM     12  H   UNL d   1      -7.555   3.973  29.387  0.00  0.00     0.168 HD
ENDBRANCH   9  11
ENDBRANCH   7   9
ENDBRANCH   1   7
TORSDOF 6
ENDMDL
MODEL 7
REMARK VINA RESULT:      -5.0      1.651      3.971
REMARK  6 active torsions:
REMARK  status: ('A' for Active; 'I' for Inactive)
REMARK    1  A    between atoms: O_1  and  C_2 
REMARK    2  A    between atoms: C_2  and  C_3 
REMARK    3  A    between atoms: C_3  and  C_5 
REMARK    4  A    between atoms: C_5  and  C_6 
REMARK    5  A    between atoms: C_6  and  C_7 
REMARK    6  A    between atoms: C_7  and  O_10 
ROOT
ATOM      1  C   UNL d   1      -2.954   5.854  30.202  0.00  0.00     0.101 C 
ENDROOT
BRANCH   1   2
ATOM      2  C   UNL d   1      -2.674   6.839  31.334  0.00  0.00     0.118 C 
BRANCH   2   3
ATOM      3  C   UNL d   1      -2.984   8.254  30.911  0.00  0.00     0.139 C 
ATOM      4  O   UNL d   1      -2.246   9.211  31.082  0.00  0.00    -0.650 OA
BRANCH   3   5
ATOM      5  O   UNL d   1      -4.187   8.366  30.306  0.00  0.00    -0.776 OA
ATOM      6  H   UNL d   1      -4.710   7.542  30.290  0.00  0.00     0.167 HD
ENDBRANCH   3   5
ENDBRANCH   2   3
ENDBRANCH   1   2
BRANCH   1   7
ATOM      7  C   UNL d   1      -3.810   4.699  30.654  0.00  0.00     0.222 C 
ATOM      8  O   UNL d   1      -3.402   3.648  31.140  0.00  0.00    -0.286 OA
BRANCH   7   9
ATOM      9  C   UNL d   1      -5.321   4.869  30.487  0.00  0.00     0.213 C 
ATOM     10  O   UNL d   1      -5.860   5.953  30.393  0.00  0.00    -0.644 OA
BRANCH   9  11
ATOM     11  O   UNL d   1      -5.945   3.677  30.460  0.00  0.00    -0.771 OA
ATOM     12  H   UNL d   1      -6.895   3.803  30.228  0.00  0.00     0.168 HD
ENDBRANCH   9  11
ENDBRANCH   7   9
ENDBRANCH   1   7
TORSDOF 6
ENDMDL
MODEL 8
REMARK VINA RESULT:      -4.8      2.156      4.271
REMARK  6 active torsions:
REMARK  status: ('A' for Active; 'I' for Inactive)
REMARK    1  A    between atoms: O_1  and  C_2 
REMARK    2  A    between atoms: C_2  and  C_3 
REMARK    3  A    between atoms: C_3  and  C_5 
REMARK    4  A    between atoms: C_5  and  C_6 
REMARK    5  A    between atoms: C_6  and  C_7 
REMARK    6  A    between atoms: C_7  and  O_10 
ROOT
ATOM      1  C   UNL d   1      -5.617   5.793  29.539  0.00  0.00     0.101 C 
ENDROOT
BRANCH   1   2
ATOM      2  C   UNL d   1      -4.136   5.437  29.626  0.00  0.00     0.118 C 
BRANCH   2   3
ATOM      3  C   UNL d   1      -3.947   4.029  30.137  0.00  0.00     0.139 C 
ATOM      4  O   UNL d   1      -3.454   3.738  31.215  0.00  0.00    -0.650 OA
BRANCH   3   5
ATOM      5  O   UNL d   1      -4.387   3.094  29.267  0.00  0.00    -0.776 OA
ATOM      6  H   UNL d   1      -5.312   2.817  29.404  0.00  0.00     0.167 HD
ENDBRANCH   3   5
ENDBRANCH   2   3
ENDBRANCH   1   2
BRANCH   1   7
ATOM      7  C   UNL d   1      -5.834   7.274  29.357  0.00  0.00     0.222 C 
ATOM      8  O   UNL d   1      -4.977   8.093  29.039  0.00  0.00    -0.286 OA
BRANCH   7   9
ATOM      9  C   UNL d   1      -7.256   7.785  29.593  0.00  0.00     0.213 C 
ATOM     10  O   UNL d   1      -7.889   7.542  30.600  0.00  0.00    -0.644 OA
BRANCH   9  11
ATOM     11  O   UNL d   1      -7.688   8.521  28.552  0.00  0.00    -0.771 OA
ATOM     12  H   UNL d   1      -7.017   8.502  27.830  0.00  0.00     0.168 HD
ENDBRANCH   9  11
ENDBRANCH   7   9
ENDBRANCH   1   7
TORSDOF 6
ENDMDL
MODEL 9
REMARK VINA RESULT:      -4.8      2.402      4.237
REMARK  6 active torsions:
REMARK  status: ('A' for Active; 'I' for Inactive)
REMARK    1  A    between atoms: O_1  and  C_2 
REMARK    2  A    between atoms: C_2  and  C_3 
REMARK    3  A    between atoms: C_3  and  C_5 
REMARK    4  A    between atoms: C_5  and  C_6 
REMARK    5  A    between atoms: C_6  and  C_7 
REMARK    6  A    between atoms: C_7  and  O_10 
ROOT
ATOM      1  C   UNL d   1      -2.217   7.495  29.940  0.00  0.00     0.101 C 
ENDROOT
BRANCH   1   2
ATOM      2  C   UNL d   1      -2.801   6.102  29.724  0.00  0.00     0.118 C 
BRANCH   2   3
ATOM      3  C   UNL d   1      -3.022   5.398  31.041  0.00  0.00     0.139 C 
ATOM      4  O   UNL d   1      -4.025   5.502  31.728  0.00  0.00    -0.650 OA
BRANCH   3   5
ATOM      5  O   UNL d   1      -1.977   4.620  31.399  0.00  0.00    -0.776 OA
ATOM      6  H   UNL d   1      -1.569   4.858  32.253  0.00  0.00     0.167 HD
ENDBRANCH   3   5
ENDBRANCH   2   3
ENDBRANCH   1   2
BRANCH   1   7
ATOM      7  C   UNL d   1      -3.271   8.495  30.345  0.00  0.00     0.222 C 
ATOM      8  O   UNL d   1      -3.357   9.046  31.439  0.00  0.00    -0.286 OA
BRANCH   7   9
ATOM      9  C   UNL d   1      -4.317   8.845  29.286  0.00  0.00     0.213 C 
ATOM     10  O   UNL d   1      -4.058   8.936  28.103  0.00  0.00    -0.644 OA
BRANCH   9  11
ATOM     11  O   UNL d   1      -5.529   9.028  29.840  0.00  0.00    -0.771 OA
ATOM     12  H   UNL d   1      -6.199   9.183  29.134  0.00  0.00     0.168 HD
ENDBRANCH   9  11
ENDBRANCH   7   9
ENDBRANCH   1   7
TORSDOF 6
ENDMDL
