MODEL 1
REMARK VINA RESULT:      -6.1      0.000      0.000
REMARK WARNING: 32 MAX_TORS EXCEEDED!!!
REMARK  50 active torsions:
REMARK  status: ('A' for Active; 'I' for Inactive)
REMARK    1  A    between atoms: C_3  and  C_2 
REMARK    2  A    between atoms: C_4  and  C_3 
REMARK    3  A    between atoms: C_5  and  C_4 
REMARK    4  A    between atoms: C_6  and  C_5 
REMARK    5  A    between atoms: C_7  and  C_6 
REMARK    6  A    between atoms: C_8  and  C_7 
REMARK    7  A    between atoms: C_9  and  C_8 
REMARK    8  A    between atoms: C_10  and  C_9 
REMARK    9  A    between atoms: C_11  and  C_10 
REMARK   10  A    between atoms: C_12  and  C_11 
REMARK   11  A    between atoms: C_13  and  C_12 
REMARK   12  A    between atoms: C_14  and  C_13 
REMARK   13  A    between atoms: C_15  and  C_14 
REMARK   14  A    between atoms: C_16  and  C_15 
REMARK   15  A    between atoms: O_17  and  C_16 
REMARK   16  A    between atoms: C_19  and  O_17 
REMARK   17  A    between atoms: C_20  and  C_19 
REMARK   18  A    between atoms: C_20  and  C_22 
REMARK   19  A    between atoms: C_20  and  O_21 
REMARK   20  A    between atoms: O_21  and  C_23 
REMARK   21  A    between atoms: C_22  and  O_24 
REMARK   22  A    between atoms: C_23  and  C_25 
REMARK   23  A    between atoms: O_24  and  P_27 
REMARK   24  A    between atoms: C_25  and  C_28 
REMARK   25  A    between atoms: P_27  and  O_31 
REMARK   26  A    between atoms: P_27  and  O_29 
REMARK   27  A    between atoms: C_28  and  C_32 
REMARK   28  A    between atoms: O_29  and  C_33 
REMARK   29  A    between atoms: C_32  and  C_34 
REMARK   30  A    between atoms: C_34  and  C_37 
REMARK   31  A    between atoms: C_35  and  O_38 
REMARK   32  A    between atoms: C_36  and  O_40 
REMARK   33  A    between atoms: C_37  and  C_42 
REMARK   34  A    between atoms: C_39  and  O_43 
REMARK   35  A    between atoms: C_41  and  O_45 
REMARK   36  A    between atoms: C_42  and  C_46 
REMARK   37  A    between atoms: O_44  and  P_47 
REMARK   38  A    between atoms: O_45  and  P_48 
REMARK   39  A    between atoms: C_46  and  C_49 
REMARK   40  A    between atoms: P_47  and  O_51 
REMARK   41  A    between atoms: P_47  and  O_52 
REMARK   42  A    between atoms: P_48  and  O_54 
REMARK   43  A    between atoms: P_48  and  O_55 
REMARK   44  A    between atoms: C_56  and  C_57 
REMARK   45  A    between atoms: C_57  and  C_58 
REMARK   46  A    between atoms: C_58  and  C_59 
REMARK   47  A    between atoms: C_59  and  C_60 
REMARK   48  A    between atoms: C_60  and  C_61 
REMARK   49  A    between atoms: C_61  and  C_62 
REMARK   50  A    between atoms: C_62  and  C_63 
ROOT
ATOM      1  C   UNL d   1     -24.740 -17.273  19.551  0.00  0.00     0.180 C 
ENDROOT
BRANCH   1   2
ATOM      2  C   UNL d   1     -25.142 -15.844  19.133  0.00  0.00     0.215 C 
BRANCH   2   3
ATOM      3  O   UNL d   1     -24.332 -15.300  18.080  0.00  0.00    -0.294 OA
BRANCH   3   4
ATOM      4  P   UNL d   1     -24.003 -16.395  16.781  0.00  0.00     0.393 P 
ATOM      5  O   UNL d   1     -22.899 -15.404  16.359  0.00  0.00    -0.631 OA
BRANCH   4   6
ATOM      6  O   UNL d   1     -25.156 -15.743  15.829  0.00  0.00    -0.307 OA
ATOM      7  H   UNL d   1     -25.544 -15.007  16.357  0.00  0.00     0.222 HD
ENDBRANCH   4   6
BRANCH   4   8
ATOM      8  O   UNL d   1     -23.674 -17.489  15.481  0.00  0.00    -0.286 OA
BRANCH   8   9
ATOM      9  C   UNL d   1     -23.046 -16.688  14.435  0.00  0.00     0.196 C 
ATOM     10  C   UNL d   1     -23.840 -16.667  13.128  0.00  0.00     0.181 C 
ATOM     11  C   UNL d   1     -24.022 -18.106  12.581  0.00  0.00     0.180 C 
ATOM     12  O   UNL d   1     -22.739 -18.708  12.491  0.00  0.00     0.000 OA
ATOM     13  C   UNL d   1     -22.086 -18.732  13.744  0.00  0.00     0.197 C 
ATOM     14  C   UNL d   1     -21.676 -17.338  14.171  0.00  0.00     0.182 C 
BRANCH  10  15
ATOM     15  O   UNL d   1     -23.091 -15.907  12.159  0.00  0.00    -0.390 OA
ATOM     16  H   UNL d   1     -22.657 -15.147  12.615  0.00  0.00     0.210 HD
ENDBRANCH  10  15
BRANCH  11  17
ATOM     17  O   UNL d   1     -24.878 -18.883  13.418  0.00  0.00    -0.390 OA
ATOM     18  H   UNL d   1     -25.697 -18.394  13.658  0.00  0.00     0.210 HD
ENDBRANCH  11  17
BRANCH  12  19
ATOM     19  P   UNL d   1     -21.891 -18.295  11.162  0.00  0.00     0.347 P 
ATOM     20  O   UNL d   1     -21.268 -19.521  10.610  0.00  0.00    -0.645 OA
BRANCH  19  21
ATOM     21  O   UNL d   1     -23.007 -17.721  10.158  0.00  0.00    -0.321 OA
ATOM     22  H   UNL d   1     -23.444 -16.862  10.332  0.00  0.00     0.220 HD
ENDBRANCH  19  21
BRANCH  19  23
ATOM     23  O   UNL d   1     -20.966 -17.037  11.431  0.00  0.00    -0.321 OA
ATOM     24  H   UNL d   1     -20.008 -17.271  11.523  0.00  0.00     0.220 HD
ENDBRANCH  19  23
ENDBRANCH  12  19
BRANCH  13  25
ATOM     25  O   UNL d   1     -20.944 -19.479  14.087  0.00  0.00    -0.286 OA
BRANCH  25  26
ATOM     26  P   UNL d   1     -21.522 -20.838  14.990  0.00  0.00     0.391 P 
ATOM     27  O   UNL d   1     -22.040 -22.053  15.798  0.00  0.00    -0.632 OA
BRANCH  26  28
ATOM     28  O   UNL d   1     -21.956 -21.413  13.531  0.00  0.00    -0.307 OA
ATOM     29  H   UNL d   1     -22.017 -20.778  12.797  0.00  0.00     0.222 HD
ENDBRANCH  26  28
BRANCH  26  30
ATOM     30  O   UNL d   1     -19.983 -21.346  14.907  0.00  0.00    -0.307 OA
ATOM     31  H   UNL d   1     -19.436 -21.329  15.717  0.00  0.00     0.222 HD
ENDBRANCH  26  30
ENDBRANCH  25  26
ENDBRANCH  13  25
BRANCH  14  32
ATOM     32  O   UNL d   1     -20.785 -17.489  15.288  0.00  0.00    -0.390 OA
ATOM     33  H   UNL d   1     -20.141 -16.740  15.301  0.00  0.00     0.210 HD
ENDBRANCH  14  32
ENDBRANCH   8   9
ENDBRANCH   4   8
ENDBRANCH   3   4
ENDBRANCH   2   3
ENDBRANCH   1   2
BRANCH   1  34
ATOM     34  O   UNL d   1     -25.769 -18.205  19.162  0.00  0.00    -0.312 OA
BRANCH  34  35
ATOM     35  C   UNL d   1     -25.336 -19.315  18.492  0.00  0.00     0.259 C 
ATOM     36  O   UNL d   1     -24.235 -19.828  18.621  0.00  0.00    -0.265 OA
BRANCH  35  37
ATOM     37  C   UNL d   1     -26.427 -19.885  17.624  0.00  0.00     0.111 C 
BRANCH  37  38
ATOM     38  C   UNL d   1     -26.979 -21.184  18.186  0.00  0.00     0.010 C 
BRANCH  38  39
ATOM     39  C   UNL d   1     -26.632 -22.366  17.286  0.00  0.00     0.000 C 
BRANCH  39  40
ATOM     40  C   UNL d   1     -27.073 -23.657  17.957  0.00  0.00     0.000 C 
BRANCH  40  41
ATOM     41  C   UNL d   1     -28.086 -23.408  19.069  0.00  0.00     0.000 C 
BRANCH  41  42
ATOM     42  C   UNL d   1     -29.460 -23.980  18.713  0.00  0.00     0.004 C 
BRANCH  42  43
ATOM     43  C   UNL d   1     -29.772 -23.971  17.215  0.00  0.00     0.027 C 
BRANCH  43  44
ATOM     44  C   UNL d   1     -31.121 -23.373  16.919  0.00  0.00    -0.031 C 
ATOM     45  C   UNL d   1     -31.850 -23.657  15.832  0.00  0.00    -0.031 C 
BRANCH  45  46
ATOM     46  C   UNL d   1     -31.395 -24.648  14.813  0.00  0.00     0.027 C 
BRANCH  46  47
ATOM     47  C   UNL d   1     -32.396 -25.764  14.594  0.00  0.00     0.004 C 
BRANCH  47  48
ATOM     48  C   UNL d   1     -32.823 -26.309  15.949  0.00  0.00     0.000 C 
BRANCH  48  49
ATOM     49  C   UNL d   1     -32.575 -27.803  16.015  0.00  0.00     0.000 C 
BRANCH  49  50
ATOM     50  C   UNL d   1     -32.221 -28.218  17.435  0.00  0.00     0.000 C 
BRANCH  50  51
ATOM     51  C   UNL d   1     -31.138 -27.303  17.987  0.00  0.00    -0.000 C 
BRANCH  51  52
ATOM     52  C   UNL d   1     -31.384 -26.990  19.456  0.00  0.00    -0.005 C 
ATOM     53  C   UNL d   1     -32.818 -26.538  19.673  0.00  0.00     0.005 C 
ENDBRANCH  51  52
ENDBRANCH  50  51
ENDBRANCH  49  50
ENDBRANCH  48  49
ENDBRANCH  47  48
ENDBRANCH  46  47
ENDBRANCH  45  46
ENDBRANCH  43  44
ENDBRANCH  42  43
ENDBRANCH  41  42
ENDBRANCH  40  41
ENDBRANCH  39  40
ENDBRANCH  38  39
ENDBRANCH  37  38
ENDBRANCH  35  37
ENDBRANCH  34  35
ENDBRANCH   1  34
BRANCH   1  54
ATOM     54  C   UNL d   1     -24.549 -17.316  21.072  0.00  0.00     0.213 C 
BRANCH  54  55
ATOM     55  O   UNL d   1     -23.572 -18.282  21.483  0.00  0.00    -0.319 OA
BRANCH  55  56
ATOM     56  C   UNL d   1     -23.948 -19.304  22.294  0.00  0.00     0.258 C 
ATOM     57  O   UNL d   1     -23.185 -20.073  22.874  0.00  0.00    -0.265 OA
BRANCH  56  58
ATOM     58  C   UNL d   1     -25.452 -19.298  22.480  0.00  0.00     0.111 C 
BRANCH  58  59
ATOM     59  C   UNL d   1     -26.120 -20.518  21.850  0.00  0.00     0.010 C 
BRANCH  59  60
ATOM     60  C   UNL d   1     -27.621 -20.344  21.634  0.00  0.00     0.000 C 
BRANCH  60  61
ATOM     61  C   UNL d   1     -28.126 -19.198  22.511  0.00  0.00     0.000 C 
BRANCH  61  62
ATOM     62  C   UNL d   1     -29.175 -19.674  23.504  0.00  0.00     0.000 C 
BRANCH  62  63
ATOM     63  C   UNL d   1     -30.543 -19.094  23.159  0.00  0.00     0.000 C 
BRANCH  63  64
ATOM     64  C   UNL d   1     -31.516 -20.217  22.823  0.00  0.00     0.000 C 
BRANCH  64  65
ATOM     65  C   UNL d   1     -31.993 -20.111  21.383  0.00  0.00     0.000 C 
BRANCH  65  66
ATOM     66  C   UNL d   1     -31.313 -21.163  20.518  0.00  0.00     0.000 C 
BRANCH  66  67
ATOM     67  C   UNL d   1     -30.437 -20.495  19.467  0.00  0.00     0.000 C 
BRANCH  67  68
ATOM     68  C   UNL d   1     -31.276 -19.622  18.546  0.00  0.00     0.000 C 
BRANCH  68  69
ATOM     69  C   UNL d   1     -30.598 -18.275  18.325  0.00  0.00     0.000 C 
BRANCH  69  70
ATOM     70  C   UNL d   1     -29.293 -18.201  19.107  0.00  0.00    -0.000 C 
BRANCH  70  71
ATOM     71  C   UNL d   1     -29.112 -16.824  19.738  0.00  0.00    -0.005 C 
ATOM     72  C   UNL d   1     -30.323 -16.448  20.571  0.00  0.00     0.005 C 
ENDBRANCH  70  71
ENDBRANCH  69  70
ENDBRANCH  68  69
ENDBRANCH  67  68
ENDBRANCH  66  67
ENDBRANCH  65  66
ENDBRANCH  64  65
ENDBRANCH  63  64
ENDBRANCH  62  63
ENDBRANCH  61  62
ENDBRANCH  60  61
ENDBRANCH  59  60
ENDBRANCH  58  59
ENDBRANCH  56  58
ENDBRANCH  55  56
ENDBRANCH  54  55
ENDBRANCH   1  54
TORSDOF 50
ENDMDL
MODEL 2
REMARK VINA RESULT:      -6.0      5.216     10.922
REMARK WARNING: 32 MAX_TORS EXCEEDED!!!
REMARK  50 active torsions:
REMARK  status: ('A' for Active; 'I' for Inactive)
REMARK    1  A    between atoms: C_3  and  C_2 
REMARK    2  A    between atoms: C_4  and  C_3 
REMARK    3  A    between atoms: C_5  and  C_4 
REMARK    4  A    between atoms: C_6  and  C_5 
REMARK    5  A    between atoms: C_7  and  C_6 
REMARK    6  A    between atoms: C_8  and  C_7 
REMARK    7  A    between atoms: C_9  and  C_8 
REMARK    8  A    between atoms: C_10  and  C_9 
REMARK    9  A    between atoms: C_11  and  C_10 
REMARK   10  A    between atoms: C_12  and  C_11 
REMARK   11  A    between atoms: C_13  and  C_12 
REMARK   12  A    between atoms: C_14  and  C_13 
REMARK   13  A    between atoms: C_15  and  C_14 
REMARK   14  A    between atoms: C_16  and  C_15 
REMARK   15  A    between atoms: O_17  and  C_16 
REMARK   16  A    between atoms: C_19  and  O_17 
REMARK   17  A    between atoms: C_20  and  C_19 
REMARK   18  A    between atoms: C_20  and  C_22 
REMARK   19  A    between atoms: C_20  and  O_21 
REMARK   20  A    between atoms: O_21  and  C_23 
REMARK   21  A    between atoms: C_22  and  O_24 
REMARK   22  A    between atoms: C_23  and  C_25 
REMARK   23  A    between atoms: O_24  and  P_27 
REMARK   24  A    between atoms: C_25  and  C_28 
REMARK   25  A    between atoms: P_27  and  O_31 
REMARK   26  A    between atoms: P_27  and  O_29 
REMARK   27  A    between atoms: C_28  and  C_32 
REMARK   28  A    between atoms: O_29  and  C_33 
REMARK   29  A    between atoms: C_32  and  C_34 
REMARK   30  A    between atoms: C_34  and  C_37 
REMARK   31  A    between atoms: C_35  and  O_38 
REMARK   32  A    between atoms: C_36  and  O_40 
REMARK   33  A    between atoms: C_37  and  C_42 
REMARK   34  A    between atoms: C_39  and  O_43 
REMARK   35  A    between atoms: C_41  and  O_45 
REMARK   36  A    between atoms: C_42  and  C_46 
REMARK   37  A    between atoms: O_44  and  P_47 
REMARK   38  A    between atoms: O_45  and  P_48 
REMARK   39  A    between atoms: C_46  and  C_49 
REMARK   40  A    between atoms: P_47  and  O_51 
REMARK   41  A    between atoms: P_47  and  O_52 
REMARK   42  A    between atoms: P_48  and  O_54 
REMARK   43  A    between atoms: P_48  and  O_55 
REMARK   44  A    between atoms: C_56  and  C_57 
REMARK   45  A    between atoms: C_57  and  C_58 
REMARK   46  A    between atoms: C_58  and  C_59 
REMARK   47  A    between atoms: C_59  and  C_60 
REMARK   48  A    between atoms: C_60  and  C_61 
REMARK   49  A    between atoms: C_61  and  C_62 
REMARK   50  A    between atoms: C_62  and  C_63 
ROOT
ATOM      1  C   UNL d   1     -25.730 -20.093  17.335  0.00  0.00     0.180 C 
ENDROOT
BRANCH   1   2
ATOM      2  C   UNL d   1     -26.060 -21.566  17.017  0.00  0.00     0.215 C 
BRANCH   2   3
ATOM      3  O   UNL d   1     -26.420 -22.341  18.170  0.00  0.00    -0.294 OA
BRANCH   3   4
ATOM      4  P   UNL d   1     -27.918 -23.194  18.032  0.00  0.00     0.393 P 
ATOM      5  O   UNL d   1     -27.099 -24.323  17.375  0.00  0.00    -0.631 OA
BRANCH   4   6
ATOM      6  O   UNL d   1     -28.304 -22.459  16.629  0.00  0.00    -0.307 OA
ATOM      7  H   UNL d   1     -29.278 -22.578  16.533  0.00  0.00     0.222 HD
ENDBRANCH   4   6
BRANCH   4   8
ATOM      8  O   UNL d   1     -29.417 -24.049  17.893  0.00  0.00    -0.286 OA
BRANCH   8   9
ATOM      9  C   UNL d   1     -30.448 -23.025  17.755  0.00  0.00     0.196 C 
ATOM     10  C   UNL d   1     -31.011 -22.549  19.094  0.00  0.00     0.181 C 
ATOM     11  C   UNL d   1     -31.621 -23.737  19.880  0.00  0.00     0.180 C 
ATOM     12  O   UNL d   1     -32.560 -24.387  19.035  0.00  0.00     0.000 OA
ATOM     13  C   UNL d   1     -31.958 -24.839  17.839  0.00  0.00     0.197 C 
ATOM     14  C   UNL d   1     -31.583 -23.675  16.944  0.00  0.00     0.182 C 
BRANCH  10  15
ATOM     15  O   UNL d   1     -32.060 -21.596  18.828  0.00  0.00    -0.390 OA
ATOM     16  H   UNL d   1     -32.595 -21.915  18.062  0.00  0.00     0.210 HD
ENDBRANCH  10  15
BRANCH  11  17
ATOM     17  O   UNL d   1     -30.618 -24.657  20.308  0.00  0.00    -0.390 OA
ATOM     18  H   UNL d   1     -30.017 -24.258  20.977  0.00  0.00     0.210 HD
ENDBRANCH  11  17
BRANCH  12  19
ATOM     19  P   UNL d   1     -34.019 -23.664  18.965  0.00  0.00     0.347 P 
ATOM     20  O   UNL d   1     -34.181 -23.078  17.614  0.00  0.00    -0.645 OA
BRANCH  19  21
ATOM     21  O   UNL d   1     -35.056 -24.872  19.190  0.00  0.00    -0.321 OA
ATOM     22  H   UNL d   1     -35.707 -24.844  19.921  0.00  0.00     0.220 HD
ENDBRANCH  19  21
BRANCH  19  23
ATOM     23  O   UNL d   1     -34.269 -22.735  20.223  0.00  0.00    -0.321 OA
ATOM     24  H   UNL d   1     -34.611 -23.229  21.010  0.00  0.00     0.220 HD
ENDBRANCH  19  23
ENDBRANCH  12  19
BRANCH  13  25
ATOM     25  O   UNL d   1     -32.501 -25.746  16.910  0.00  0.00    -0.286 OA
BRANCH  25  26
ATOM     26  P   UNL d   1     -31.985 -27.315  17.425  0.00  0.00     0.391 P 
ATOM     27  O   UNL d   1     -31.523 -28.720  17.885  0.00  0.00    -0.632 OA
BRANCH  26  28
ATOM     28  O   UNL d   1     -30.781 -26.498  18.153  0.00  0.00    -0.307 OA
ATOM     29  H   UNL d   1     -30.362 -26.910  18.928  0.00  0.00     0.222 HD
ENDBRANCH  26  28
BRANCH  26  30
ATOM     30  O   UNL d   1     -33.063 -27.103  18.619  0.00  0.00    -0.307 OA
ATOM     31  H   UNL d   1     -33.069 -27.731  19.368  0.00  0.00     0.222 HD
ENDBRANCH  26  30
ENDBRANCH  25  26
ENDBRANCH  13  25
BRANCH  14  32
ATOM     32  O   UNL d   1     -31.252 -24.228  15.660  0.00  0.00    -0.390 OA
ATOM     33  H   UNL d   1     -31.985 -24.816  15.355  0.00  0.00     0.210 HD
ENDBRANCH  14  32
ENDBRANCH   8   9
ENDBRANCH   4   8
ENDBRANCH   3   4
ENDBRANCH   2   3
ENDBRANCH   1   2
BRANCH   1  34
ATOM     34  O   UNL d   1     -26.447 -19.224  16.437  0.00  0.00    -0.312 OA
BRANCH  34  35
ATOM     35  C   UNL d   1     -27.428 -18.464  17.011  0.00  0.00     0.259 C 
ATOM     36  O   UNL d   1     -28.409 -18.027  16.429  0.00  0.00    -0.265 OA
BRANCH  35  37
ATOM     37  C   UNL d   1     -27.191 -18.298  18.489  0.00  0.00     0.111 C 
BRANCH  37  38
ATOM     38  C   UNL d   1     -27.376 -16.857  18.935  0.00  0.00     0.010 C 
BRANCH  38  39
ATOM     39  C   UNL d   1     -28.511 -16.735  19.947  0.00  0.00     0.000 C 
BRANCH  39  40
ATOM     40  C   UNL d   1     -27.928 -16.634  21.348  0.00  0.00     0.000 C 
BRANCH  40  41
ATOM     41  C   UNL d   1     -28.686 -17.498  22.349  0.00  0.00     0.000 C 
BRANCH  41  42
ATOM     42  C   UNL d   1     -29.432 -18.638  21.652  0.00  0.00     0.004 C 
BRANCH  42  43
ATOM     43  C   UNL d   1     -28.976 -20.035  22.076  0.00  0.00     0.027 C 
BRANCH  43  44
ATOM     44  C   UNL d   1     -27.917 -20.590  21.160  0.00  0.00    -0.031 C 
ATOM     45  C   UNL d   1     -26.604 -20.555  21.418  0.00  0.00    -0.031 C 
BRANCH  45  46
ATOM     46  C   UNL d   1     -26.063 -19.984  22.686  0.00  0.00     0.027 C 
BRANCH  46  47
ATOM     47  C   UNL d   1     -25.033 -18.899  22.447  0.00  0.00     0.004 C 
BRANCH  47  48
ATOM     48  C   UNL d   1     -24.385 -19.133  21.090  0.00  0.00     0.000 C 
BRANCH  48  49
ATOM     49  C   UNL d   1     -24.159 -17.811  20.382  0.00  0.00     0.000 C 
BRANCH  49  50
ATOM     50  C   UNL d   1     -24.174 -16.665  21.383  0.00  0.00     0.000 C 
BRANCH  50  51
ATOM     51  C   UNL d   1     -24.465 -15.356  20.666  0.00  0.00    -0.000 C 
BRANCH  51  52
ATOM     52  C   UNL d   1     -23.368 -14.333  20.930  0.00  0.00    -0.005 C 
ATOM     53  C   UNL d   1     -23.041 -14.272  22.412  0.00  0.00     0.005 C 
ENDBRANCH  51  52
ENDBRANCH  50  51
ENDBRANCH  49  50
ENDBRANCH  48  49
ENDBRANCH  47  48
ENDBRANCH  46  47
ENDBRANCH  45  46
ENDBRANCH  43  44
ENDBRANCH  42  43
ENDBRANCH  41  42
ENDBRANCH  40  41
ENDBRANCH  39  40
ENDBRANCH  38  39
ENDBRANCH  37  38
ENDBRANCH  35  37
ENDBRANCH  34  35
ENDBRANCH   1  34
BRANCH   1  54
ATOM     54  C   UNL d   1     -24.220 -19.872  17.177  0.00  0.00     0.213 C 
BRANCH  54  55
ATOM     55  O   UNL d   1     -23.717 -20.347  15.922  0.00  0.00    -0.319 OA
BRANCH  55  56
ATOM     56  C   UNL d   1     -22.489 -20.926  15.874  0.00  0.00     0.258 C 
ATOM     57  O   UNL d   1     -22.254 -22.118  16.053  0.00  0.00    -0.265 OA
BRANCH  56  58
ATOM     58  C   UNL d   1     -21.449 -19.908  15.449  0.00  0.00     0.111 C 
BRANCH  58  59
ATOM     59  C   UNL d   1     -20.944 -20.154  14.028  0.00  0.00     0.010 C 
BRANCH  59  60
ATOM     60  C   UNL d   1     -21.721 -19.383  12.966  0.00  0.00     0.000 C 
BRANCH  60  61
ATOM     61  C   UNL d   1     -21.263 -19.836  11.580  0.00  0.00     0.000 C 
BRANCH  61  62
ATOM     62  C   UNL d   1     -22.012 -19.106  10.475  0.00  0.00     0.000 C 
BRANCH  62  63
ATOM     63  C   UNL d   1     -21.252 -17.854  10.049  0.00  0.00     0.000 C 
BRANCH  63  64
ATOM     64  C   UNL d   1     -22.176 -16.922   9.275  0.00  0.00     0.000 C 
BRANCH  64  65
ATOM     65  C   UNL d   1     -22.704 -15.813  10.171  0.00  0.00     0.000 C 
BRANCH  65  66
ATOM     66  C   UNL d   1     -21.793 -15.623  11.376  0.00  0.00     0.000 C 
BRANCH  66  67
ATOM     67  C   UNL d   1     -22.581 -15.802  12.666  0.00  0.00     0.000 C 
BRANCH  67  68
ATOM     68  C   UNL d   1     -23.992 -16.290  12.370  0.00  0.00     0.000 C 
BRANCH  68  69
ATOM     69  C   UNL d   1     -24.451 -17.274  13.438  0.00  0.00     0.000 C 
BRANCH  69  70
ATOM     70  C   UNL d   1     -23.786 -16.961  14.773  0.00  0.00    -0.000 C 
BRANCH  70  71
ATOM     71  C   UNL d   1     -24.778 -16.327  15.742  0.00  0.00    -0.005 C 
ATOM     72  C   UNL d   1     -24.141 -16.106  17.102  0.00  0.00     0.005 C 
ENDBRANCH  70  71
ENDBRANCH  69  70
ENDBRANCH  68  69
ENDBRANCH  67  68
ENDBRANCH  66  67
ENDBRANCH  65  66
ENDBRANCH  64  65
ENDBRANCH  63  64
ENDBRANCH  62  63
ENDBRANCH  61  62
ENDBRANCH  60  61
ENDBRANCH  59  60
ENDBRANCH  58  59
ENDBRANCH  56  58
ENDBRANCH  55  56
ENDBRANCH  54  55
ENDBRANCH   1  54
TORSDOF 50
ENDMDL
MODEL 3
REMARK VINA RESULT:      -6.0      2.113      6.563
REMARK WARNING: 32 MAX_TORS EXCEEDED!!!
REMARK  50 active torsions:
REMARK  status: ('A' for Active; 'I' for Inactive)
REMARK    1  A    between atoms: C_3  and  C_2 
REMARK    2  A    between atoms: C_4  and  C_3 
REMARK    3  A    between atoms: C_5  and  C_4 
REMARK    4  A    between atoms: C_6  and  C_5 
REMARK    5  A    between atoms: C_7  and  C_6 
REMARK    6  A    between atoms: C_8  and  C_7 
REMARK    7  A    between atoms: C_9  and  C_8 
REMARK    8  A    between atoms: C_10  and  C_9 
REMARK    9  A    between atoms: C_11  and  C_10 
REMARK   10  A    between atoms: C_12  and  C_11 
REMARK   11  A    between atoms: C_13  and  C_12 
REMARK   12  A    between atoms: C_14  and  C_13 
REMARK   13  A    between atoms: C_15  and  C_14 
REMARK   14  A    between atoms: C_16  and  C_15 
REMARK   15  A    between atoms: O_17  and  C_16 
REMARK   16  A    between atoms: C_19  and  O_17 
REMARK   17  A    between atoms: C_20  and  C_19 
REMARK   18  A    between atoms: C_20  and  C_22 
REMARK   19  A    between atoms: C_20  and  O_21 
REMARK   20  A    between atoms: O_21  and  C_23 
REMARK   21  A    between atoms: C_22  and  O_24 
REMARK   22  A    between atoms: C_23  and  C_25 
REMARK   23  A    between atoms: O_24  and  P_27 
REMARK   24  A    between atoms: C_25  and  C_28 
REMARK   25  A    between atoms: P_27  and  O_31 
REMARK   26  A    between atoms: P_27  and  O_29 
REMARK   27  A    between atoms: C_28  and  C_32 
REMARK   28  A    between atoms: O_29  and  C_33 
REMARK   29  A    between atoms: C_32  and  C_34 
REMARK   30  A    between atoms: C_34  and  C_37 
REMARK   31  A    between atoms: C_35  and  O_38 
REMARK   32  A    between atoms: C_36  and  O_40 
REMARK   33  A    between atoms: C_37  and  C_42 
REMARK   34  A    between atoms: C_39  and  O_43 
REMARK   35  A    between atoms: C_41  and  O_45 
REMARK   36  A    between atoms: C_42  and  C_46 
REMARK   37  A    between atoms: O_44  and  P_47 
REMARK   38  A    between atoms: O_45  and  P_48 
REMARK   39  A    between atoms: C_46  and  C_49 
REMARK   40  A    between atoms: P_47  and  O_51 
REMARK   41  A    between atoms: P_47  and  O_52 
REMARK   42  A    between atoms: P_48  and  O_54 
REMARK   43  A    between atoms: P_48  and  O_55 
REMARK   44  A    between atoms: C_56  and  C_57 
REMARK   45  A    between atoms: C_57  and  C_58 
REMARK   46  A    between atoms: C_58  and  C_59 
REMARK   47  A    between atoms: C_59  and  C_60 
REMARK   48  A    between atoms: C_60  and  C_61 
REMARK   49  A    between atoms: C_61  and  C_62 
REMARK   50  A    between atoms: C_62  and  C_63 
ROOT
ATOM      1  C   UNL d   1     -27.872 -17.322  17.427  0.00  0.00     0.180 C 
ENDROOT
BRANCH   1   2
ATOM      2  C   UNL d   1     -27.358 -15.958  16.924  0.00  0.00     0.215 C 
BRANCH   2   3
ATOM      3  O   UNL d   1     -26.042 -15.628  17.393  0.00  0.00    -0.294 OA
BRANCH   3   4
ATOM      4  P   UNL d   1     -24.766 -16.551  16.678  0.00  0.00     0.393 P 
ATOM      5  O   UNL d   1     -24.576 -17.182  18.072  0.00  0.00    -0.631 OA
BRANCH   4   6
ATOM      6  O   UNL d   1     -23.668 -15.367  16.902  0.00  0.00    -0.307 OA
ATOM      7  H   UNL d   1     -24.153 -14.650  17.375  0.00  0.00     0.222 HD
ENDBRANCH   4   6
BRANCH   4   8
ATOM      8  O   UNL d   1     -23.489 -17.476  15.963  0.00  0.00    -0.286 OA
BRANCH   8   9
ATOM      9  C   UNL d   1     -22.989 -16.672  14.852  0.00  0.00     0.196 C 
ATOM     10  C   UNL d   1     -23.942 -16.629  13.657  0.00  0.00     0.181 C 
ATOM     11  C   UNL d   1     -24.211 -18.061  13.126  0.00  0.00     0.180 C 
ATOM     12  O   UNL d   1     -22.957 -18.676  12.868  0.00  0.00     0.000 OA
ATOM     13  C   UNL d   1     -22.150 -18.719  14.028  0.00  0.00     0.197 C 
ATOM     14  C   UNL d   1     -21.672 -17.334  14.410  0.00  0.00     0.182 C 
BRANCH  10  15
ATOM     15  O   UNL d   1     -23.314 -15.868  12.607  0.00  0.00    -0.390 OA
ATOM     16  H   UNL d   1     -22.336 -15.992  12.662  0.00  0.00     0.210 HD
ENDBRANCH  10  15
BRANCH  11  17
ATOM     17  O   UNL d   1     -24.963 -18.836  14.059  0.00  0.00    -0.390 OA
ATOM     18  H   UNL d   1     -25.930 -18.772  13.893  0.00  0.00     0.210 HD
ENDBRANCH  11  17
BRANCH  12  19
ATOM     19  P   UNL d   1     -22.280 -18.259  11.445  0.00  0.00     0.347 P 
ATOM     20  O   UNL d   1     -21.145 -17.348  11.722  0.00  0.00    -0.645 OA
BRANCH  19  21
ATOM     21  O   UNL d   1     -21.758 -19.656  10.845  0.00  0.00    -0.321 OA
ATOM     22  H   UNL d   1     -20.824 -19.767  10.574  0.00  0.00     0.220 HD
ENDBRANCH  19  21
BRANCH  19  23
ATOM     23  O   UNL d   1     -23.373 -17.802  10.394  0.00  0.00    -0.321 OA
ATOM     24  H   UNL d   1     -24.089 -17.246  10.794  0.00  0.00     0.220 HD
ENDBRANCH  19  23
ENDBRANCH  12  19
BRANCH  13  25
ATOM     25  O   UNL d   1     -20.983 -19.483  14.216  0.00  0.00    -0.286 OA
BRANCH  25  26
ATOM     26  P   UNL d   1     -21.481 -20.903  15.072  0.00  0.00     0.391 P 
ATOM     27  O   UNL d   1     -21.927 -22.172  15.839  0.00  0.00    -0.632 OA
BRANCH  26  28
ATOM     28  O   UNL d   1     -21.971 -21.413  13.607  0.00  0.00    -0.307 OA
ATOM     29  H   UNL d   1     -22.350 -20.752  13.003  0.00  0.00     0.222 HD
ENDBRANCH  26  28
BRANCH  26  30
ATOM     30  O   UNL d   1     -19.935 -21.361  14.888  0.00  0.00    -0.307 OA
ATOM     31  H   UNL d   1     -19.675 -21.827  14.069  0.00  0.00     0.222 HD
ENDBRANCH  26  30
ENDBRANCH  25  26
ENDBRANCH  13  25
BRANCH  14  32
ATOM     32  O   UNL d   1     -20.648 -17.507  15.403  0.00  0.00    -0.390 OA
ATOM     33  H   UNL d   1     -21.004 -18.040  16.155  0.00  0.00     0.210 HD
ENDBRANCH  14  32
ENDBRANCH   8   9
ENDBRANCH   4   8
ENDBRANCH   3   4
ENDBRANCH   2   3
ENDBRANCH   1   2
BRANCH   1  34
ATOM     34  O   UNL d   1     -28.387 -18.090  16.321  0.00  0.00    -0.312 OA
BRANCH  34  35
ATOM     35  C   UNL d   1     -27.855 -19.341  16.174  0.00  0.00     0.259 C 
ATOM     36  O   UNL d   1     -26.668 -19.587  16.030  0.00  0.00    -0.265 OA
BRANCH  35  37
ATOM     37  C   UNL d   1     -28.918 -20.401  16.299  0.00  0.00     0.111 C 
BRANCH  37  38
ATOM     38  C   UNL d   1     -28.806 -21.449  15.205  0.00  0.00     0.010 C 
BRANCH  38  39
ATOM     39  C   UNL d   1     -29.519 -22.738  15.603  0.00  0.00     0.000 C 
BRANCH  39  40
ATOM     40  C   UNL d   1     -28.545 -23.902  15.508  0.00  0.00     0.000 C 
BRANCH  40  41
ATOM     41  C   UNL d   1     -28.134 -24.419  16.882  0.00  0.00     0.000 C 
BRANCH  41  42
ATOM     42  C   UNL d   1     -26.852 -23.743  17.374  0.00  0.00     0.004 C 
BRANCH  42  43
ATOM     43  C   UNL d   1     -26.881 -23.349  18.853  0.00  0.00     0.027 C 
BRANCH  43  44
ATOM     44  C   UNL d   1     -28.080 -22.502  19.192  0.00  0.00    -0.031 C 
ATOM     45  C   UNL d   1     -28.080 -21.531  20.113  0.00  0.00    -0.031 C 
BRANCH  45  46
ATOM     46  C   UNL d   1     -26.849 -21.166  20.877  0.00  0.00     0.027 C 
BRANCH  46  47
ATOM     47  C   UNL d   1     -27.135 -20.231  22.034  0.00  0.00     0.004 C 
BRANCH  47  48
ATOM     48  C   UNL d   1     -27.406 -18.840  21.481  0.00  0.00     0.000 C 
BRANCH  48  49
ATOM     49  C   UNL d   1     -28.268 -18.051  22.447  0.00  0.00     0.000 C 
BRANCH  49  50
ATOM     50  C   UNL d   1     -29.265 -18.969  23.138  0.00  0.00     0.000 C 
BRANCH  50  51
ATOM     51  C   UNL d   1     -30.525 -18.193  23.492  0.00  0.00    -0.000 C 
BRANCH  51  52
ATOM     52  C   UNL d   1     -31.758 -19.080  23.394  0.00  0.00    -0.005 C 
ATOM     53  C   UNL d   1     -32.112 -19.655  24.754  0.00  0.00     0.005 C 
ENDBRANCH  51  52
ENDBRANCH  50  51
ENDBRANCH  49  50
ENDBRANCH  48  49
ENDBRANCH  47  48
ENDBRANCH  46  47
ENDBRANCH  45  46
ENDBRANCH  43  44
ENDBRANCH  42  43
ENDBRANCH  41  42
ENDBRANCH  40  41
ENDBRANCH  39  40
ENDBRANCH  38  39
ENDBRANCH  37  38
ENDBRANCH  35  37
ENDBRANCH  34  35
ENDBRANCH   1  34
BRANCH   1  54
ATOM     54  C   UNL d   1     -28.983 -17.091  18.459  0.00  0.00     0.213 C 
BRANCH  54  55
ATOM     55  O   UNL d   1     -29.707 -18.287  18.775  0.00  0.00    -0.319 OA
BRANCH  55  56
ATOM     56  C   UNL d   1     -30.711 -18.235  19.688  0.00  0.00     0.258 C 
ATOM     57  O   UNL d   1     -31.241 -17.210  20.110  0.00  0.00    -0.265 OA
BRANCH  56  58
ATOM     58  C   UNL d   1     -31.174 -19.636  20.035  0.00  0.00     0.111 C 
BRANCH  58  59
ATOM     59  C   UNL d   1     -31.527 -20.454  18.795  0.00  0.00     0.010 C 
BRANCH  59  60
ATOM     60  C   UNL d   1     -32.409 -21.663  19.095  0.00  0.00     0.000 C 
BRANCH  60  61
ATOM     61  C   UNL d   1     -31.702 -22.931  18.619  0.00  0.00     0.000 C 
BRANCH  61  62
ATOM     62  C   UNL d   1     -31.275 -23.807  19.787  0.00  0.00     0.000 C 
BRANCH  62  63
ATOM     63  C   UNL d   1     -30.997 -25.231  19.317  0.00  0.00     0.000 C 
BRANCH  63  64
ATOM     64  C   UNL d   1     -31.510 -25.420  17.896  0.00  0.00     0.000 C 
BRANCH  64  65
ATOM     65  C   UNL d   1     -30.968 -26.706  17.289  0.00  0.00     0.000 C 
BRANCH  65  66
ATOM     66  C   UNL d   1     -31.643 -27.917  17.918  0.00  0.00     0.000 C 
BRANCH  66  67
ATOM     67  C   UNL d   1     -30.748 -29.142  17.796  0.00  0.00     0.000 C 
BRANCH  67  68
ATOM     68  C   UNL d   1     -30.839 -30.001  19.048  0.00  0.00     0.000 C 
BRANCH  68  69
ATOM     69  C   UNL d   1     -32.085 -30.877  19.005  0.00  0.00     0.000 C 
BRANCH  69  70
ATOM     70  C   UNL d   1     -31.700 -32.348  18.928  0.00  0.00    -0.000 C 
BRANCH  70  71
ATOM     71  C   UNL d   1     -30.448 -32.629  19.753  0.00  0.00    -0.005 C 
ATOM     72  C   UNL d   1     -30.815 -33.063  21.161  0.00  0.00     0.005 C 
ENDBRANCH  70  71
ENDBRANCH  69  70
ENDBRANCH  68  69
ENDBRANCH  67  68
ENDBRANCH  66  67
ENDBRANCH  65  66
ENDBRANCH  64  65
ENDBRANCH  63  64
ENDBRANCH  62  63
ENDBRANCH  61  62
ENDBRANCH  60  61
ENDBRANCH  59  60
ENDBRANCH  58  59
ENDBRANCH  56  58
ENDBRANCH  55  56
ENDBRANCH  54  55
ENDBRANCH   1  54
TORSDOF 50
ENDMDL
MODEL 4
REMARK VINA RESULT:      -5.9      2.258      7.065
REMARK WARNING: 32 MAX_TORS EXCEEDED!!!
REMARK  50 active torsions:
REMARK  status: ('A' for Active; 'I' for Inactive)
REMARK    1  A    between atoms: C_3  and  C_2 
REMARK    2  A    between atoms: C_4  and  C_3 
REMARK    3  A    between atoms: C_5  and  C_4 
REMARK    4  A    between atoms: C_6  and  C_5 
REMARK    5  A    between atoms: C_7  and  C_6 
REMARK    6  A    between atoms: C_8  and  C_7 
REMARK    7  A    between atoms: C_9  and  C_8 
REMARK    8  A    between atoms: C_10  and  C_9 
REMARK    9  A    between atoms: C_11  and  C_10 
REMARK   10  A    between atoms: C_12  and  C_11 
REMARK   11  A    between atoms: C_13  and  C_12 
REMARK   12  A    between atoms: C_14  and  C_13 
REMARK   13  A    between atoms: C_15  and  C_14 
REMARK   14  A    between atoms: C_16  and  C_15 
REMARK   15  A    between atoms: O_17  and  C_16 
REMARK   16  A    between atoms: C_19  and  O_17 
REMARK   17  A    between atoms: C_20  and  C_19 
REMARK   18  A    between atoms: C_20  and  C_22 
REMARK   19  A    between atoms: C_20  and  O_21 
REMARK   20  A    between atoms: O_21  and  C_23 
REMARK   21  A    between atoms: C_22  and  O_24 
REMARK   22  A    between atoms: C_23  and  C_25 
REMARK   23  A    between atoms: O_24  and  P_27 
REMARK   24  A    between atoms: C_25  and  C_28 
REMARK   25  A    between atoms: P_27  and  O_31 
REMARK   26  A    between atoms: P_27  and  O_29 
REMARK   27  A    between atoms: C_28  and  C_32 
REMARK   28  A    between atoms: O_29  and  C_33 
REMARK   29  A    between atoms: C_32  and  C_34 
REMARK   30  A    between atoms: C_34  and  C_37 
REMARK   31  A    between atoms: C_35  and  O_38 
REMARK   32  A    between atoms: C_36  and  O_40 
REMARK   33  A    between atoms: C_37  and  C_42 
REMARK   34  A    between atoms: C_39  and  O_43 
REMARK   35  A    between atoms: C_41  and  O_45 
REMARK   36  A    between atoms: C_42  and  C_46 
REMARK   37  A    between atoms: O_44  and  P_47 
REMARK   38  A    between atoms: O_45  and  P_48 
REMARK   39  A    between atoms: C_46  and  C_49 
REMARK   40  A    between atoms: P_47  and  O_51 
REMARK   41  A    between atoms: P_47  and  O_52 
REMARK   42  A    between atoms: P_48  and  O_54 
REMARK   43  A    between atoms: P_48  and  O_55 
REMARK   44  A    between atoms: C_56  and  C_57 
REMARK   45  A    between atoms: C_57  and  C_58 
REMARK   46  A    between atoms: C_58  and  C_59 
REMARK   47  A    between atoms: C_59  and  C_60 
REMARK   48  A    between atoms: C_60  and  C_61 
REMARK   49  A    between atoms: C_61  and  C_62 
REMARK   50  A    between atoms: C_62  and  C_63 
ROOT
ATOM      1  C   UNL d   1     -29.423 -20.062  15.205  0.00  0.00     0.180 C 
ENDROOT
BRANCH   1   2
ATOM      2  C   UNL d   1     -29.226 -18.621  14.691  0.00  0.00     0.215 C 
BRANCH   2   3
ATOM      3  O   UNL d   1     -28.744 -18.550  13.340  0.00  0.00    -0.294 OA
BRANCH   3   4
ATOM      4  P   UNL d   1     -27.021 -18.512  13.187  0.00  0.00     0.393 P 
ATOM      5  O   UNL d   1     -27.076 -17.220  14.029  0.00  0.00    -0.631 OA
BRANCH   4   6
ATOM      6  O   UNL d   1     -27.081 -17.750  11.747  0.00  0.00    -0.307 OA
ATOM      7  H   UNL d   1     -26.277 -17.180  11.721  0.00  0.00     0.222 HD
ENDBRANCH   4   6
BRANCH   4   8
ATOM      8  O   UNL d   1     -25.297 -18.472  13.035  0.00  0.00    -0.286 OA
BRANCH   8   9
ATOM      9  C   UNL d   1     -24.922 -17.064  13.124  0.00  0.00     0.196 C 
ATOM     10  C   UNL d   1     -24.084 -16.585  11.937  0.00  0.00     0.181 C 
ATOM     11  C   UNL d   1     -22.784 -17.419  11.818  0.00  0.00     0.180 C 
ATOM     12  O   UNL d   1     -22.119 -17.378  13.073  0.00  0.00     0.000 OA
ATOM     13  C   UNL d   1     -22.937 -17.878  14.112  0.00  0.00     0.197 C 
ATOM     14  C   UNL d   1     -24.082 -16.932  14.407  0.00  0.00     0.182 C 
BRANCH  10  15
ATOM     15  O   UNL d   1     -23.720 -15.210  12.170  0.00  0.00    -0.390 OA
ATOM     16  H   UNL d   1     -24.376 -14.805  12.788  0.00  0.00     0.210 HD
ENDBRANCH  10  15
BRANCH  11  17
ATOM     17  O   UNL d   1     -23.056 -18.768  11.444  0.00  0.00    -0.390 OA
ATOM     18  H   UNL d   1     -23.341 -19.311  12.213  0.00  0.00     0.210 HD
ENDBRANCH  11  17
BRANCH  12  19
ATOM     19  P   UNL d   1     -21.247 -16.026  13.332  0.00  0.00     0.347 P 
ATOM     20  O   UNL d   1     -21.976 -15.184  14.309  0.00  0.00    -0.645 OA
BRANCH  19  21
ATOM     21  O   UNL d   1     -19.872 -16.571  13.962  0.00  0.00    -0.321 OA
ATOM     22  H   UNL d   1     -19.790 -16.728  14.925  0.00  0.00     0.220 HD
ENDBRANCH  19  21
BRANCH  19  23
ATOM     23  O   UNL d   1     -20.781 -15.365  11.969  0.00  0.00    -0.321 OA
ATOM     24  H   UNL d   1     -20.883 -14.380  11.960  0.00  0.00     0.220 HD
ENDBRANCH  19  23
ENDBRANCH  12  19
BRANCH  13  25
ATOM     25  O   UNL d   1     -22.528 -18.240  15.409  0.00  0.00    -0.286 OA
BRANCH  25  26
ATOM     26  P   UNL d   1     -22.252 -19.947  15.358  0.00  0.00     0.391 P 
ATOM     27  O   UNL d   1     -22.004 -21.475  15.312  0.00  0.00    -0.632 OA
BRANCH  26  28
ATOM     28  O   UNL d   1     -23.441 -20.006  16.467  0.00  0.00    -0.307 OA
ATOM     29  H   UNL d   1     -23.253 -20.460  17.306  0.00  0.00     0.222 HD
ENDBRANCH  26  28
BRANCH  26  30
ATOM     30  O   UNL d   1     -23.240 -19.907  14.071  0.00  0.00    -0.307 OA
ATOM     31  H   UNL d   1     -24.149 -19.565  14.184  0.00  0.00     0.222 HD
ENDBRANCH  26  30
ENDBRANCH  25  26
ENDBRANCH  13  25
BRANCH  14  32
ATOM     32  O   UNL d   1     -24.676 -17.369  15.640  0.00  0.00    -0.390 OA
ATOM     33  H   UNL d   1     -24.643 -18.356  15.690  0.00  0.00     0.210 HD
ENDBRANCH  14  32
ENDBRANCH   8   9
ENDBRANCH   4   8
ENDBRANCH   3   4
ENDBRANCH   2   3
ENDBRANCH   1   2
BRANCH   1  34
ATOM     34  O   UNL d   1     -28.155 -20.615  15.612  0.00  0.00    -0.312 OA
BRANCH  34  35
ATOM     35  C   UNL d   1     -27.564 -20.006  16.684  0.00  0.00     0.259 C 
ATOM     36  O   UNL d   1     -26.501 -19.406  16.652  0.00  0.00    -0.265 OA
BRANCH  35  37
ATOM     37  C   UNL d   1     -28.437 -20.094  17.908  0.00  0.00     0.111 C 
BRANCH  37  38
ATOM     38  C   UNL d   1     -28.770 -18.721  18.468  0.00  0.00     0.010 C 
BRANCH  38  39
ATOM     39  C   UNL d   1     -30.269 -18.574  18.713  0.00  0.00     0.000 C 
BRANCH  39  40
ATOM     40  C   UNL d   1     -30.799 -19.844  19.359  0.00  0.00     0.000 C 
BRANCH  40  41
ATOM     41  C   UNL d   1     -32.313 -19.809  19.533  0.00  0.00     0.000 C 
BRANCH  41  42
ATOM     42  C   UNL d   1     -32.738 -20.436  20.863  0.00  0.00     0.004 C 
BRANCH  42  43
ATOM     43  C   UNL d   1     -31.572 -20.925  21.725  0.00  0.00     0.027 C 
BRANCH  43  44
ATOM     44  C   UNL d   1     -31.543 -20.259  23.074  0.00  0.00    -0.031 C 
ATOM     45  C   UNL d   1     -30.598 -19.396  23.469  0.00  0.00    -0.031 C 
BRANCH  45  46
ATOM     46  C   UNL d   1     -29.484 -18.978  22.567  0.00  0.00     0.027 C 
BRANCH  46  47
ATOM     47  C   UNL d   1     -28.210 -19.760  22.810  0.00  0.00     0.004 C 
BRANCH  47  48
ATOM     48  C   UNL d   1     -27.922 -20.616  21.585  0.00  0.00     0.000 C 
BRANCH  48  49
ATOM     49  C   UNL d   1     -26.446 -20.565  21.245  0.00  0.00     0.000 C 
BRANCH  49  50
ATOM     50  C   UNL d   1     -26.034 -19.146  20.883  0.00  0.00     0.000 C 
BRANCH  50  51
ATOM     51  C   UNL d   1     -24.609 -19.141  20.351  0.00  0.00    -0.000 C 
BRANCH  51  52
ATOM     52  C   UNL d   1     -23.668 -18.437  21.321  0.00  0.00    -0.005 C 
ATOM     53  C   UNL d   1     -22.591 -19.391  21.807  0.00  0.00     0.005 C 
ENDBRANCH  51  52
ENDBRANCH  50  51
ENDBRANCH  49  50
ENDBRANCH  48  49
ENDBRANCH  47  48
ENDBRANCH  46  47
ENDBRANCH  45  46
ENDBRANCH  43  44
ENDBRANCH  42  43
ENDBRANCH  41  42
ENDBRANCH  40  41
ENDBRANCH  39  40
ENDBRANCH  38  39
ENDBRANCH  37  38
ENDBRANCH  35  37
ENDBRANCH  34  35
ENDBRANCH   1  34
BRANCH   1  54
ATOM     54  C   UNL d   1     -30.027 -20.917  14.084  0.00  0.00     0.213 C 
BRANCH  54  55
ATOM     55  O   UNL d   1     -30.434 -22.216  14.532  0.00  0.00    -0.319 OA
BRANCH  55  56
ATOM     56  C   UNL d   1     -30.824 -23.143  13.620  0.00  0.00     0.258 C 
ATOM     57  O   UNL d   1     -30.875 -22.971  12.404  0.00  0.00    -0.265 OA
BRANCH  56  58
ATOM     58  C   UNL d   1     -31.082 -24.471  14.302  0.00  0.00     0.111 C 
BRANCH  58  59
ATOM     59  C   UNL d   1     -32.509 -24.583  14.836  0.00  0.00     0.010 C 
BRANCH  59  60
ATOM     60  C   UNL d   1     -32.607 -25.350  16.151  0.00  0.00     0.000 C 
BRANCH  60  61
ATOM     61  C   UNL d   1     -31.875 -26.684  16.011  0.00  0.00     0.000 C 
BRANCH  61  62
ATOM     62  C   UNL d   1     -30.881 -26.899  17.142  0.00  0.00     0.000 C 
BRANCH  62  63
ATOM     63  C   UNL d   1     -31.321 -28.057  18.032  0.00  0.00     0.000 C 
BRANCH  63  64
ATOM     64  C   UNL d   1     -31.456 -27.585  19.473  0.00  0.00     0.000 C 
BRANCH  64  65
ATOM     65  C   UNL d   1     -32.744 -26.798  19.670  0.00  0.00     0.000 C 
BRANCH  65  66
ATOM     66  C   UNL d   1     -32.433 -25.356  20.048  0.00  0.00     0.000 C 
BRANCH  66  67
ATOM     67  C   UNL d   1     -31.004 -25.242  20.559  0.00  0.00     0.000 C 
BRANCH  67  68
ATOM     68  C   UNL d   1     -30.338 -23.987  20.016  0.00  0.00     0.000 C 
BRANCH  68  69
ATOM     69  C   UNL d   1     -31.064 -23.494  18.770  0.00  0.00     0.000 C 
BRANCH  69  70
ATOM     70  C   UNL d   1     -30.064 -23.116  17.685  0.00  0.00    -0.000 C 
BRANCH  70  71
ATOM     71  C   UNL d   1     -28.743 -23.854  17.880  0.00  0.00    -0.005 C 
ATOM     72  C   UNL d   1     -28.223 -24.390  16.559  0.00  0.00     0.005 C 
ENDBRANCH  70  71
ENDBRANCH  69  70
ENDBRANCH  68  69
ENDBRANCH  67  68
ENDBRANCH  66  67
ENDBRANCH  65  66
ENDBRANCH  64  65
ENDBRANCH  63  64
ENDBRANCH  62  63
ENDBRANCH  61  62
ENDBRANCH  60  61
ENDBRANCH  59  60
ENDBRANCH  58  59
ENDBRANCH  56  58
ENDBRANCH  55  56
ENDBRANCH  54  55
ENDBRANCH   1  54
TORSDOF 50
ENDMDL
MODEL 5
REMARK VINA RESULT:      -5.9      1.464      3.443
REMARK WARNING: 32 MAX_TORS EXCEEDED!!!
REMARK  50 active torsions:
REMARK  status: ('A' for Active; 'I' for Inactive)
REMARK    1  A    between atoms: C_3  and  C_2 
REMARK    2  A    between atoms: C_4  and  C_3 
REMARK    3  A    between atoms: C_5  and  C_4 
REMARK    4  A    between atoms: C_6  and  C_5 
REMARK    5  A    between atoms: C_7  and  C_6 
REMARK    6  A    between atoms: C_8  and  C_7 
REMARK    7  A    between atoms: C_9  and  C_8 
REMARK    8  A    between atoms: C_10  and  C_9 
REMARK    9  A    between atoms: C_11  and  C_10 
REMARK   10  A    between atoms: C_12  and  C_11 
REMARK   11  A    between atoms: C_13  and  C_12 
REMARK   12  A    between atoms: C_14  and  C_13 
REMARK   13  A    between atoms: C_15  and  C_14 
REMARK   14  A    between atoms: C_16  and  C_15 
REMARK   15  A    between atoms: O_17  and  C_16 
REMARK   16  A    between atoms: C_19  and  O_17 
REMARK   17  A    between atoms: C_20  and  C_19 
REMARK   18  A    between atoms: C_20  and  C_22 
REMARK   19  A    between atoms: C_20  and  O_21 
REMARK   20  A    between atoms: O_21  and  C_23 
REMARK   21  A    between atoms: C_22  and  O_24 
REMARK   22  A    between atoms: C_23  and  C_25 
REMARK   23  A    between atoms: O_24  and  P_27 
REMARK   24  A    between atoms: C_25  and  C_28 
REMARK   25  A    between atoms: P_27  and  O_31 
REMARK   26  A    between atoms: P_27  and  O_29 
REMARK   27  A    between atoms: C_28  and  C_32 
REMARK   28  A    between atoms: O_29  and  C_33 
REMARK   29  A    between atoms: C_32  and  C_34 
REMARK   30  A    between atoms: C_34  and  C_37 
REMARK   31  A    between atoms: C_35  and  O_38 
REMARK   32  A    between atoms: C_36  and  O_40 
REMARK   33  A    between atoms: C_37  and  C_42 
REMARK   34  A    between atoms: C_39  and  O_43 
REMARK   35  A    between atoms: C_41  and  O_45 
REMARK   36  A    between atoms: C_42  and  C_46 
REMARK   37  A    between atoms: O_44  and  P_47 
REMARK   38  A    between atoms: O_45  and  P_48 
REMARK   39  A    between atoms: C_46  and  C_49 
REMARK   40  A    between atoms: P_47  and  O_51 
REMARK   41  A    between atoms: P_47  and  O_52 
REMARK   42  A    between atoms: P_48  and  O_54 
REMARK   43  A    between atoms: P_48  and  O_55 
REMARK   44  A    between atoms: C_56  and  C_57 
REMARK   45  A    between atoms: C_57  and  C_58 
REMARK   46  A    between atoms: C_58  and  C_59 
REMARK   47  A    between atoms: C_59  and  C_60 
REMARK   48  A    between atoms: C_60  and  C_61 
REMARK   49  A    between atoms: C_61  and  C_62 
REMARK   50  A    between atoms: C_62  and  C_63 
ROOT
ATOM      1  C   UNL d   1     -24.756 -18.169  19.372  0.00  0.00     0.180 C 
ENDROOT
BRANCH   1   2
ATOM      2  C   UNL d   1     -25.140 -16.686  19.550  0.00  0.00     0.215 C 
BRANCH   2   3
ATOM      3  O   UNL d   1     -25.615 -16.063  18.347  0.00  0.00    -0.294 OA
BRANCH   3   4
ATOM      4  P   UNL d   1     -24.735 -16.484  16.918  0.00  0.00     0.393 P 
ATOM      5  O   UNL d   1     -23.776 -15.336  17.292  0.00  0.00    -0.631 OA
BRANCH   4   6
ATOM      6  O   UNL d   1     -25.688 -15.571  15.960  0.00  0.00    -0.307 OA
ATOM      7  H   UNL d   1     -25.204 -15.499  15.104  0.00  0.00     0.222 HD
ENDBRANCH   4   6
BRANCH   4   8
ATOM      8  O   UNL d   1     -23.854 -16.904  15.489  0.00  0.00    -0.286 OA
BRANCH   8   9
ATOM      9  C   UNL d   1     -23.723 -18.358  15.514  0.00  0.00     0.196 C 
ATOM     10  C   UNL d   1     -22.344 -18.834  15.973  0.00  0.00     0.181 C 
ATOM     11  C   UNL d   1     -21.239 -18.272  15.042  0.00  0.00     0.180 C 
ATOM     12  O   UNL d   1     -21.574 -18.614  13.705  0.00  0.00     0.000 OA
ATOM     13  C   UNL d   1     -22.840 -18.102  13.339  0.00  0.00     0.197 C 
ATOM     14  C   UNL d   1     -23.952 -18.828  14.067  0.00  0.00     0.182 C 
BRANCH  10  15
ATOM     15  O   UNL d   1     -22.314 -20.272  15.892  0.00  0.00    -0.390 OA
ATOM     16  H   UNL d   1     -22.868 -20.645  16.620  0.00  0.00     0.210 HD
ENDBRANCH  10  15
BRANCH  11  17
ATOM     17  O   UNL d   1     -21.107 -16.857  15.176  0.00  0.00    -0.390 OA
ATOM     18  H   UNL d   1     -21.931 -16.387  14.915  0.00  0.00     0.210 HD
ENDBRANCH  11  17
BRANCH  12  19
ATOM     19  P   UNL d   1     -21.180 -20.137  13.279  0.00  0.00     0.347 P 
ATOM     20  O   UNL d   1     -20.796 -20.132  11.848  0.00  0.00    -0.645 OA
BRANCH  19  21
ATOM     21  O   UNL d   1     -19.915 -20.480  14.208  0.00  0.00    -0.321 OA
ATOM     22  H   UNL d   1     -19.412 -21.311  14.084  0.00  0.00     0.220 HD
ENDBRANCH  19  21
BRANCH  19  23
ATOM     23  O   UNL d   1     -22.274 -21.176  13.760  0.00  0.00    -0.321 OA
ATOM     24  H   UNL d   1     -22.206 -21.394  14.724  0.00  0.00     0.220 HD
ENDBRANCH  19  23
ENDBRANCH  12  19
BRANCH  13  25
ATOM     25  O   UNL d   1     -23.368 -18.008  12.038  0.00  0.00    -0.286 OA
BRANCH  25  26
ATOM     26  P   UNL d   1     -22.928 -16.436  11.463  0.00  0.00     0.391 P 
ATOM     27  O   UNL d   1     -22.535 -15.030  10.947  0.00  0.00    -0.632 OA
BRANCH  26  28
ATOM     28  O   UNL d   1     -23.019 -16.018  13.033  0.00  0.00    -0.307 OA
ATOM     29  H   UNL d   1     -23.098 -16.733  13.686  0.00  0.00     0.222 HD
ENDBRANCH  26  28
BRANCH  26  30
ATOM     30  O   UNL d   1     -21.411 -17.008  11.541  0.00  0.00    -0.307 OA
ATOM     31  H   UNL d   1     -20.948 -17.232  10.710  0.00  0.00     0.222 HD
ENDBRANCH  26  30
ENDBRANCH  25  26
ENDBRANCH  13  25
BRANCH  14  32
ATOM     32  O   UNL d   1     -25.183 -18.448  13.431  0.00  0.00    -0.390 OA
ATOM     33  H   UNL d   1     -25.510 -19.196  12.873  0.00  0.00     0.210 HD
ENDBRANCH  14  32
ENDBRANCH   8   9
ENDBRANCH   4   8
ENDBRANCH   3   4
ENDBRANCH   2   3
ENDBRANCH   1   2
BRANCH   1  34
ATOM     34  O   UNL d   1     -25.932 -18.947  19.070  0.00  0.00    -0.312 OA
BRANCH  34  35
ATOM     35  C   UNL d   1     -25.705 -20.127  18.418  0.00  0.00     0.259 C 
ATOM     36  O   UNL d   1     -24.622 -20.495  17.988  0.00  0.00    -0.265 OA
BRANCH  35  37
ATOM     37  C   UNL d   1     -26.953 -20.969  18.368  0.00  0.00     0.111 C 
BRANCH  37  38
ATOM     38  C   UNL d   1     -26.951 -22.051  19.435  0.00  0.00     0.010 C 
BRANCH  38  39
ATOM     39  C   UNL d   1     -26.997 -23.442  18.808  0.00  0.00     0.000 C 
BRANCH  39  40
ATOM     40  C   UNL d   1     -27.075 -23.310  17.296  0.00  0.00     0.000 C 
BRANCH  40  41
ATOM     41  C   UNL d   1     -27.803 -24.486  16.655  0.00  0.00     0.000 C 
BRANCH  41  42
ATOM     42  C   UNL d   1     -29.321 -24.289  16.687  0.00  0.00     0.004 C 
BRANCH  42  43
ATOM     43  C   UNL d   1     -30.113 -25.575  16.934  0.00  0.00     0.027 C 
BRANCH  43  44
ATOM     44  C   UNL d   1     -31.520 -25.297  17.390  0.00  0.00    -0.031 C 
ATOM     45  C   UNL d   1     -32.618 -25.701  16.739  0.00  0.00    -0.031 C 
BRANCH  45  46
ATOM     46  C   UNL d   1     -32.540 -26.518  15.491  0.00  0.00     0.027 C 
BRANCH  46  47
ATOM     47  C   UNL d   1     -32.407 -25.669  14.243  0.00  0.00     0.004 C 
BRANCH  47  48
ATOM     48  C   UNL d   1     -33.143 -24.356  14.467  0.00  0.00     0.000 C 
BRANCH  48  49
ATOM     49  C   UNL d   1     -32.212 -23.185  14.225  0.00  0.00     0.000 C 
BRANCH  49  50
ATOM     50  C   UNL d   1     -30.943 -23.653  13.527  0.00  0.00     0.000 C 
BRANCH  50  51
ATOM     51  C   UNL d   1     -29.997 -22.478  13.330  0.00  0.00    -0.000 C 
BRANCH  51  52
ATOM     52  C   UNL d   1     -30.161 -21.453  14.444  0.00  0.00    -0.005 C 
ATOM     53  C   UNL d   1     -28.806 -20.991  14.948  0.00  0.00     0.005 C 
ENDBRANCH  51  52
ENDBRANCH  50  51
ENDBRANCH  49  50
ENDBRANCH  48  49
ENDBRANCH  47  48
ENDBRANCH  46  47
ENDBRANCH  45  46
ENDBRANCH  43  44
ENDBRANCH  42  43
ENDBRANCH  41  42
ENDBRANCH  40  41
ENDBRANCH  39  40
ENDBRANCH  38  39
ENDBRANCH  37  38
ENDBRANCH  35  37
ENDBRANCH  34  35
ENDBRANCH   1  34
BRANCH   1  54
ATOM     54  C   UNL d   1     -24.115 -18.680  20.669  0.00  0.00     0.213 C 
BRANCH  54  55
ATOM     55  O   UNL d   1     -24.947 -18.477  21.819  0.00  0.00    -0.319 OA
BRANCH  55  56
ATOM     56  C   UNL d   1     -25.273 -19.539  22.599  0.00  0.00     0.258 C 
ATOM     57  O   UNL d   1     -24.542 -20.061  23.437  0.00  0.00    -0.265 OA
BRANCH  56  58
ATOM     58  C   UNL d   1     -26.722 -19.926  22.376  0.00  0.00     0.111 C 
BRANCH  58  59
ATOM     59  C   UNL d   1     -27.620 -18.710  22.157  0.00  0.00     0.010 C 
BRANCH  59  60
ATOM     60  C   UNL d   1     -28.611 -18.886  21.010  0.00  0.00     0.000 C 
BRANCH  60  61
ATOM     61  C   UNL d   1     -30.034 -18.784  21.556  0.00  0.00     0.000 C 
BRANCH  61  62
ATOM     62  C   UNL d   1     -30.495 -20.096  22.172  0.00  0.00     0.000 C 
BRANCH  62  63
ATOM     63  C   UNL d   1     -31.334 -20.892  21.177  0.00  0.00     0.000 C 
BRANCH  63  64
ATOM     64  C   UNL d   1     -30.462 -21.916  20.462  0.00  0.00     0.000 C 
BRANCH  64  65
ATOM     65  C   UNL d   1     -30.844 -22.025  18.994  0.00  0.00     0.000 C 
BRANCH  65  66
ATOM     66  C   UNL d   1     -30.525 -20.727  18.264  0.00  0.00     0.000 C 
BRANCH  66  67
ATOM     67  C   UNL d   1     -31.787 -20.154  17.633  0.00  0.00     0.000 C 
BRANCH  67  68
ATOM     68  C   UNL d   1     -32.061 -18.753  18.159  0.00  0.00     0.000 C 
BRANCH  68  69
ATOM     69  C   UNL d   1     -31.246 -17.724  17.385  0.00  0.00     0.000 C 
BRANCH  69  70
ATOM     70  C   UNL d   1     -30.318 -16.965  18.324  0.00  0.00    -0.000 C 
BRANCH  70  71
ATOM     71  C   UNL d   1     -29.006 -16.613  17.630  0.00  0.00    -0.005 C 
ATOM     72  C   UNL d   1     -28.438 -17.820  16.906  0.00  0.00     0.005 C 
ENDBRANCH  70  71
ENDBRANCH  69  70
ENDBRANCH  68  69
ENDBRANCH  67  68
ENDBRANCH  66  67
ENDBRANCH  65  66
ENDBRANCH  64  65
ENDBRANCH  63  64
ENDBRANCH  62  63
ENDBRANCH  61  62
ENDBRANCH  60  61
ENDBRANCH  59  60
ENDBRANCH  58  59
ENDBRANCH  56  58
ENDBRANCH  55  56
ENDBRANCH  54  55
ENDBRANCH   1  54
TORSDOF 50
ENDMDL
MODEL 6
REMARK VINA RESULT:      -5.9      2.023      6.588
REMARK WARNING: 32 MAX_TORS EXCEEDED!!!
REMARK  50 active torsions:
REMARK  status: ('A' for Active; 'I' for Inactive)
REMARK    1  A    between atoms: C_3  and  C_2 
REMARK    2  A    between atoms: C_4  and  C_3 
REMARK    3  A    between atoms: C_5  and  C_4 
REMARK    4  A    between atoms: C_6  and  C_5 
REMARK    5  A    between atoms: C_7  and  C_6 
REMARK    6  A    between atoms: C_8  and  C_7 
REMARK    7  A    between atoms: C_9  and  C_8 
REMARK    8  A    between atoms: C_10  and  C_9 
REMARK    9  A    between atoms: C_11  and  C_10 
REMARK   10  A    between atoms: C_12  and  C_11 
REMARK   11  A    between atoms: C_13  and  C_12 
REMARK   12  A    between atoms: C_14  and  C_13 
REMARK   13  A    between atoms: C_15  and  C_14 
REMARK   14  A    between atoms: C_16  and  C_15 
REMARK   15  A    between atoms: O_17  and  C_16 
REMARK   16  A    between atoms: C_19  and  O_17 
REMARK   17  A    between atoms: C_20  and  C_19 
REMARK   18  A    between atoms: C_20  and  C_22 
REMARK   19  A    between atoms: C_20  and  O_21 
REMARK   20  A    between atoms: O_21  and  C_23 
REMARK   21  A    between atoms: C_22  and  O_24 
REMARK   22  A    between atoms: C_23  and  C_25 
REMARK   23  A    between atoms: O_24  and  P_27 
REMARK   24  A    between atoms: C_25  and  C_28 
REMARK   25  A    between atoms: P_27  and  O_31 
REMARK   26  A    between atoms: P_27  and  O_29 
REMARK   27  A    between atoms: C_28  and  C_32 
REMARK   28  A    between atoms: O_29  and  C_33 
REMARK   29  A    between atoms: C_32  and  C_34 
REMARK   30  A    between atoms: C_34  and  C_37 
REMARK   31  A    between atoms: C_35  and  O_38 
REMARK   32  A    between atoms: C_36  and  O_40 
REMARK   33  A    between atoms: C_37  and  C_42 
REMARK   34  A    between atoms: C_39  and  O_43 
REMARK   35  A    between atoms: C_41  and  O_45 
REMARK   36  A    between atoms: C_42  and  C_46 
REMARK   37  A    between atoms: O_44  and  P_47 
REMARK   38  A    between atoms: O_45  and  P_48 
REMARK   39  A    between atoms: C_46  and  C_49 
REMARK   40  A    between atoms: P_47  and  O_51 
REMARK   41  A    between atoms: P_47  and  O_52 
REMARK   42  A    between atoms: P_48  and  O_54 
REMARK   43  A    between atoms: P_48  and  O_55 
REMARK   44  A    between atoms: C_56  and  C_57 
REMARK   45  A    between atoms: C_57  and  C_58 
REMARK   46  A    between atoms: C_58  and  C_59 
REMARK   47  A    between atoms: C_59  and  C_60 
REMARK   48  A    between atoms: C_60  and  C_61 
REMARK   49  A    between atoms: C_61  and  C_62 
REMARK   50  A    between atoms: C_62  and  C_63 
ROOT
ATOM      1  C   UNL d   1     -27.598 -17.470  17.798  0.00  0.00     0.180 C 
ENDROOT
BRANCH   1   2
ATOM      2  C   UNL d   1     -27.288 -16.043  17.302  0.00  0.00     0.215 C 
BRANCH   2   3
ATOM      3  O   UNL d   1     -25.938 -15.625  17.552  0.00  0.00    -0.294 OA
BRANCH   3   4
ATOM      4  P   UNL d   1     -24.730 -16.543  16.721  0.00  0.00     0.393 P 
ATOM      5  O   UNL d   1     -24.427 -17.192  18.086  0.00  0.00    -0.631 OA
BRANCH   4   6
ATOM      6  O   UNL d   1     -23.612 -15.365  16.868  0.00  0.00    -0.307 OA
ATOM      7  H   UNL d   1     -22.748 -15.834  16.938  0.00  0.00     0.222 HD
ENDBRANCH   4   6
BRANCH   4   8
ATOM      8  O   UNL d   1     -23.521 -17.462  15.890  0.00  0.00    -0.286 OA
BRANCH   8   9
ATOM      9  C   UNL d   1     -23.055 -16.613  14.798  0.00  0.00     0.196 C 
ATOM     10  C   UNL d   1     -23.990 -16.616  13.588  0.00  0.00     0.181 C 
ATOM     11  C   UNL d   1     -24.158 -18.054  13.035  0.00  0.00     0.180 C 
ATOM     12  O   UNL d   1     -22.864 -18.585  12.791  0.00  0.00     0.000 OA
ATOM     13  C   UNL d   1     -22.075 -18.592  13.963  0.00  0.00     0.197 C 
ATOM     14  C   UNL d   1     -21.692 -17.185  14.371  0.00  0.00     0.182 C 
BRANCH  10  15
ATOM     15  O   UNL d   1     -23.395 -15.802  12.558  0.00  0.00    -0.390 OA
ATOM     16  H   UNL d   1     -24.081 -15.592  11.879  0.00  0.00     0.210 HD
ENDBRANCH  10  15
BRANCH  11  17
ATOM     17  O   UNL d   1     -24.874 -18.888  13.946  0.00  0.00    -0.390 OA
ATOM     18  H   UNL d   1     -24.695 -19.842  13.786  0.00  0.00     0.210 HD
ENDBRANCH  11  17
BRANCH  12  19
ATOM     19  P   UNL d   1     -22.192 -18.107  11.385  0.00  0.00     0.347 P 
ATOM     20  O   UNL d   1     -21.577 -19.290  10.739  0.00  0.00    -0.645 OA
BRANCH  19  21
ATOM     21  O   UNL d   1     -23.441 -17.573  10.525  0.00  0.00    -0.321 OA
ATOM     22  H   UNL d   1     -24.311 -17.421  10.946  0.00  0.00     0.220 HD
ENDBRANCH  19  21
BRANCH  19  23
ATOM     23  O   UNL d   1     -21.305 -16.809  11.576  0.00  0.00    -0.321 OA
ATOM     24  H   UNL d   1     -21.803 -16.054  11.981  0.00  0.00     0.220 HD
ENDBRANCH  19  23
ENDBRANCH  12  19
BRANCH  13  25
ATOM     25  O   UNL d   1     -20.864 -19.283  14.162  0.00  0.00    -0.286 OA
BRANCH  25  26
ATOM     26  P   UNL d   1     -21.294 -20.784  14.908  0.00  0.00     0.391 P 
ATOM     27  O   UNL d   1     -21.679 -22.127  15.576  0.00  0.00    -0.632 OA
BRANCH  26  28
ATOM     28  O   UNL d   1     -22.663 -20.002  15.310  0.00  0.00    -0.307 OA
ATOM     29  H   UNL d   1     -23.487 -20.518  15.335  0.00  0.00     0.222 HD
ENDBRANCH  26  28
BRANCH  26  30
ATOM     30  O   UNL d   1     -21.785 -21.201  13.418  0.00  0.00    -0.307 OA
ATOM     31  H   UNL d   1     -22.410 -20.616  12.946  0.00  0.00     0.222 HD
ENDBRANCH  26  30
ENDBRANCH  25  26
ENDBRANCH  13  25
BRANCH  14  32
ATOM     32  O   UNL d   1     -20.675 -17.305  15.378  0.00  0.00    -0.390 OA
ATOM     33  H   UNL d   1     -19.961 -17.909  15.057  0.00  0.00     0.210 HD
ENDBRANCH  14  32
ENDBRANCH   8   9
ENDBRANCH   4   8
ENDBRANCH   3   4
ENDBRANCH   2   3
ENDBRANCH   1   2
BRANCH   1  34
ATOM     34  O   UNL d   1     -28.530 -18.109  16.902  0.00  0.00    -0.312 OA
BRANCH  34  35
ATOM     35  C   UNL d   1     -28.043 -19.186  16.215  0.00  0.00     0.259 C 
ATOM     36  O   UNL d   1     -27.058 -19.170  15.492  0.00  0.00    -0.265 OA
BRANCH  35  37
ATOM     37  C   UNL d   1     -28.829 -20.431  16.529  0.00  0.00     0.111 C 
BRANCH  37  38
ATOM     38  C   UNL d   1     -28.686 -21.482  15.441  0.00  0.00     0.010 C 
BRANCH  38  39
ATOM     39  C   UNL d   1     -29.496 -22.732  15.772  0.00  0.00     0.000 C 
BRANCH  39  40
ATOM     40  C   UNL d   1     -28.640 -23.965  15.532  0.00  0.00     0.000 C 
BRANCH  40  41
ATOM     41  C   UNL d   1     -28.158 -24.590  16.836  0.00  0.00     0.000 C 
BRANCH  41  42
ATOM     42  C   UNL d   1     -26.752 -24.110  17.201  0.00  0.00     0.004 C 
BRANCH  42  43
ATOM     43  C   UNL d   1     -26.633 -23.543  18.618  0.00  0.00     0.027 C 
BRANCH  43  44
ATOM     44  C   UNL d   1     -27.960 -23.086  19.161  0.00  0.00    -0.031 C 
ATOM     45  C   UNL d   1     -28.137 -21.971  19.881  0.00  0.00    -0.031 C 
BRANCH  45  46
ATOM     46  C   UNL d   1     -27.010 -21.039  20.184  0.00  0.00     0.027 C 
BRANCH  46  47
ATOM     47  C   UNL d   1     -27.145 -20.378  21.540  0.00  0.00     0.004 C 
BRANCH  47  48
ATOM     48  C   UNL d   1     -25.753 -20.145  22.109  0.00  0.00     0.000 C 
BRANCH  48  49
ATOM     49  C   UNL d   1     -25.562 -18.680  22.445  0.00  0.00     0.000 C 
BRANCH  49  50
ATOM     50  C   UNL d   1     -24.243 -18.174  21.881  0.00  0.00     0.000 C 
BRANCH  50  51
ATOM     51  C   UNL d   1     -23.580 -19.267  21.057  0.00  0.00    -0.000 C 
BRANCH  51  52
ATOM     52  C   UNL d   1     -22.143 -19.494  21.507  0.00  0.00    -0.005 C 
ATOM     53  C   UNL d   1     -22.081 -19.710  23.009  0.00  0.00     0.005 C 
ENDBRANCH  51  52
ENDBRANCH  50  51
ENDBRANCH  49  50
ENDBRANCH  48  49
ENDBRANCH  47  48
ENDBRANCH  46  47
ENDBRANCH  45  46
ENDBRANCH  43  44
ENDBRANCH  42  43
ENDBRANCH  41  42
ENDBRANCH  40  41
ENDBRANCH  39  40
ENDBRANCH  38  39
ENDBRANCH  37  38
ENDBRANCH  35  37
ENDBRANCH  34  35
ENDBRANCH   1  34
BRANCH   1  54
ATOM     54  C   UNL d   1     -28.202 -17.392  19.206  0.00  0.00     0.213 C 
BRANCH  54  55
ATOM     55  O   UNL d   1     -29.350 -18.235  19.367  0.00  0.00    -0.319 OA
BRANCH  55  56
ATOM     56  C   UNL d   1     -29.987 -18.270  20.565  0.00  0.00     0.258 C 
ATOM     57  O   UNL d   1     -30.007 -17.359  21.390  0.00  0.00    -0.265 OA
BRANCH  56  58
ATOM     58  C   UNL d   1     -30.776 -19.557  20.700  0.00  0.00     0.111 C 
BRANCH  58  59
ATOM     59  C   UNL d   1     -31.147 -20.155  19.345  0.00  0.00     0.010 C 
BRANCH  59  60
ATOM     60  C   UNL d   1     -32.202 -21.254  19.435  0.00  0.00     0.000 C 
BRANCH  60  61
ATOM     61  C   UNL d   1     -31.641 -22.539  18.827  0.00  0.00     0.000 C 
BRANCH  61  62
ATOM     62  C   UNL d   1     -31.476 -23.629  19.876  0.00  0.00     0.000 C 
BRANCH  62  63
ATOM     63  C   UNL d   1     -31.557 -25.010  19.233  0.00  0.00     0.000 C 
BRANCH  63  64
ATOM     64  C   UNL d   1     -31.804 -24.874  17.736  0.00  0.00     0.000 C 
BRANCH  64  65
ATOM     65  C   UNL d   1     -31.302 -26.101  16.989  0.00  0.00     0.000 C 
BRANCH  65  66
ATOM     66  C   UNL d   1     -31.945 -27.363  17.546  0.00  0.00     0.000 C 
BRANCH  66  67
ATOM     67  C   UNL d   1     -30.918 -28.482  17.636  0.00  0.00     0.000 C 
BRANCH  67  68
ATOM     68  C   UNL d   1     -30.976 -29.156  18.999  0.00  0.00     0.000 C 
BRANCH  68  69
ATOM     69  C   UNL d   1     -31.236 -30.650  18.845  0.00  0.00     0.000 C 
BRANCH  69  70
ATOM     70  C   UNL d   1     -29.969 -31.444  19.139  0.00  0.00    -0.000 C 
BRANCH  70  71
ATOM     71  C   UNL d   1     -29.520 -31.240  20.582  0.00  0.00    -0.005 C 
ATOM     72  C   UNL d   1     -29.439 -32.566  21.316  0.00  0.00     0.005 C 
ENDBRANCH  70  71
ENDBRANCH  69  70
ENDBRANCH  68  69
ENDBRANCH  67  68
ENDBRANCH  66  67
ENDBRANCH  65  66
ENDBRANCH  64  65
ENDBRANCH  63  64
ENDBRANCH  62  63
ENDBRANCH  61  62
ENDBRANCH  60  61
ENDBRANCH  59  60
ENDBRANCH  58  59
ENDBRANCH  56  58
ENDBRANCH  55  56
ENDBRANCH  54  55
ENDBRANCH   1  54
TORSDOF 50
ENDMDL
MODEL 7
REMARK VINA RESULT:      -5.8      2.734      8.236
REMARK WARNING: 32 MAX_TORS EXCEEDED!!!
REMARK  50 active torsions:
REMARK  status: ('A' for Active; 'I' for Inactive)
REMARK    1  A    between atoms: C_3  and  C_2 
REMARK    2  A    between atoms: C_4  and  C_3 
REMARK    3  A    between atoms: C_5  and  C_4 
REMARK    4  A    between atoms: C_6  and  C_5 
REMARK    5  A    between atoms: C_7  and  C_6 
REMARK    6  A    between atoms: C_8  and  C_7 
REMARK    7  A    between atoms: C_9  and  C_8 
REMARK    8  A    between atoms: C_10  and  C_9 
REMARK    9  A    between atoms: C_11  and  C_10 
REMARK   10  A    between atoms: C_12  and  C_11 
REMARK   11  A    between atoms: C_13  and  C_12 
REMARK   12  A    between atoms: C_14  and  C_13 
REMARK   13  A    between atoms: C_15  and  C_14 
REMARK   14  A    between atoms: C_16  and  C_15 
REMARK   15  A    between atoms: O_17  and  C_16 
REMARK   16  A    between atoms: C_19  and  O_17 
REMARK   17  A    between atoms: C_20  and  C_19 
REMARK   18  A    between atoms: C_20  and  C_22 
REMARK   19  A    between atoms: C_20  and  O_21 
REMARK   20  A    between atoms: O_21  and  C_23 
REMARK   21  A    between atoms: C_22  and  O_24 
REMARK   22  A    between atoms: C_23  and  C_25 
REMARK   23  A    between atoms: O_24  and  P_27 
REMARK   24  A    between atoms: C_25  and  C_28 
REMARK   25  A    between atoms: P_27  and  O_31 
REMARK   26  A    between atoms: P_27  and  O_29 
REMARK   27  A    between atoms: C_28  and  C_32 
REMARK   28  A    between atoms: O_29  and  C_33 
REMARK   29  A    between atoms: C_32  and  C_34 
REMARK   30  A    between atoms: C_34  and  C_37 
REMARK   31  A    between atoms: C_35  and  O_38 
REMARK   32  A    between atoms: C_36  and  O_40 
REMARK   33  A    between atoms: C_37  and  C_42 
REMARK   34  A    between atoms: C_39  and  O_43 
REMARK   35  A    between atoms: C_41  and  O_45 
REMARK   36  A    between atoms: C_42  and  C_46 
REMARK   37  A    between atoms: O_44  and  P_47 
REMARK   38  A    between atoms: O_45  and  P_48 
REMARK   39  A    between atoms: C_46  and  C_49 
REMARK   40  A    between atoms: P_47  and  O_51 
REMARK   41  A    between atoms: P_47  and  O_52 
REMARK   42  A    between atoms: P_48  and  O_54 
REMARK   43  A    between atoms: P_48  and  O_55 
REMARK   44  A    between atoms: C_56  and  C_57 
REMARK   45  A    between atoms: C_57  and  C_58 
REMARK   46  A    between atoms: C_58  and  C_59 
REMARK   47  A    between atoms: C_59  and  C_60 
REMARK   48  A    between atoms: C_60  and  C_61 
REMARK   49  A    between atoms: C_61  and  C_62 
REMARK   50  A    between atoms: C_62  and  C_63 
ROOT
ATOM      1  C   UNL d   1     -29.650 -20.235  15.862  0.00  0.00     0.180 C 
ENDROOT
BRANCH   1   2
ATOM      2  C   UNL d   1     -28.665 -19.053  15.970  0.00  0.00     0.215 C 
BRANCH   2   3
ATOM      3  O   UNL d   1     -28.493 -18.329  14.743  0.00  0.00    -0.294 OA
BRANCH   3   4
ATOM      4  P   UNL d   1     -26.898 -18.400  14.077  0.00  0.00     0.393 P 
ATOM      5  O   UNL d   1     -27.436 -19.522  13.166  0.00  0.00    -0.631 OA
BRANCH   4   6
ATOM      6  O   UNL d   1     -26.364 -19.405  15.245  0.00  0.00    -0.307 OA
ATOM      7  H   UNL d   1     -26.837 -20.257  15.092  0.00  0.00     0.222 HD
ENDBRANCH   4   6
BRANCH   4   8
ATOM      8  O   UNL d   1     -25.302 -18.472  13.411  0.00  0.00    -0.286 OA
BRANCH   8   9
ATOM      9  C   UNL d   1     -24.789 -17.106  13.457  0.00  0.00     0.196 C 
ATOM     10  C   UNL d   1     -23.907 -16.750  12.259  0.00  0.00     0.181 C 
ATOM     11  C   UNL d   1     -22.694 -17.712  12.173  0.00  0.00     0.180 C 
ATOM     12  O   UNL d   1     -22.031 -17.696  13.430  0.00  0.00     0.000 OA
ATOM     13  C   UNL d   1     -22.896 -18.079  14.480  0.00  0.00     0.197 C 
ATOM     14  C   UNL d   1     -23.943 -17.015  14.739  0.00  0.00     0.182 C 
BRANCH  10  15
ATOM     15  O   UNL d   1     -23.409 -15.411  12.449  0.00  0.00    -0.390 OA
ATOM     16  H   UNL d   1     -22.590 -15.294  11.910  0.00  0.00     0.210 HD
ENDBRANCH  10  15
BRANCH  11  17
ATOM     17  O   UNL d   1     -23.098 -19.040  11.841  0.00  0.00    -0.390 OA
ATOM     18  H   UNL d   1     -23.920 -19.048  11.301  0.00  0.00     0.210 HD
ENDBRANCH  11  17
BRANCH  12  19
ATOM     19  P   UNL d   1     -21.030 -16.429  13.648  0.00  0.00     0.347 P 
ATOM     20  O   UNL d   1     -19.802 -16.919  14.317  0.00  0.00    -0.645 OA
BRANCH  19  21
ATOM     21  O   UNL d   1     -20.707 -15.932  12.154  0.00  0.00    -0.321 OA
ATOM     22  H   UNL d   1     -21.125 -15.124  11.793  0.00  0.00     0.220 HD
ENDBRANCH  19  21
BRANCH  19  23
ATOM     23  O   UNL d   1     -21.789 -15.192  14.283  0.00  0.00    -0.321 OA
ATOM     24  H   UNL d   1     -21.520 -15.008  15.219  0.00  0.00     0.220 HD
ENDBRANCH  19  23
ENDBRANCH  12  19
BRANCH  13  25
ATOM     25  O   UNL d   1     -22.527 -18.437  15.790  0.00  0.00    -0.286 OA
BRANCH  25  26
ATOM     26  P   UNL d   1     -22.340 -20.157  15.774  0.00  0.00     0.391 P 
ATOM     27  O   UNL d   1     -22.173 -21.696  15.760  0.00  0.00    -0.632 OA
BRANCH  26  28
ATOM     28  O   UNL d   1     -23.462 -20.123  16.952  0.00  0.00    -0.307 OA
ATOM     29  H   UNL d   1     -24.389 -19.995  16.688  0.00  0.00     0.222 HD
ENDBRANCH  26  28
BRANCH  26  30
ATOM     30  O   UNL d   1     -23.401 -20.101  14.547  0.00  0.00    -0.307 OA
ATOM     31  H   UNL d   1     -24.341 -19.918  14.743  0.00  0.00     0.222 HD
ENDBRANCH  26  30
ENDBRANCH  25  26
ENDBRANCH  13  25
BRANCH  14  32
ATOM     32  O   UNL d   1     -24.579 -17.352  15.982  0.00  0.00    -0.390 OA
ATOM     33  H   UNL d   1     -24.213 -18.205  16.320  0.00  0.00     0.210 HD
ENDBRANCH  14  32
ENDBRANCH   8   9
ENDBRANCH   4   8
ENDBRANCH   3   4
ENDBRANCH   2   3
ENDBRANCH   1   2
BRANCH   1  34
ATOM     34  O   UNL d   1     -30.784 -20.009  16.723  0.00  0.00    -0.312 OA
BRANCH  34  35
ATOM     35  C   UNL d   1     -30.486 -19.728  18.027  0.00  0.00     0.259 C 
ATOM     36  O   UNL d   1     -30.245 -20.562  18.887  0.00  0.00    -0.265 OA
BRANCH  35  37
ATOM     37  C   UNL d   1     -30.406 -18.242  18.259  0.00  0.00     0.111 C 
BRANCH  37  38
ATOM     38  C   UNL d   1     -29.260 -17.872  19.186  0.00  0.00     0.010 C 
BRANCH  38  39
ATOM     39  C   UNL d   1     -29.768 -17.134  20.421  0.00  0.00     0.000 C 
BRANCH  39  40
ATOM     40  C   UNL d   1     -28.606 -16.417  21.091  0.00  0.00     0.000 C 
BRANCH  40  41
ATOM     41  C   UNL d   1     -28.099 -17.169  22.316  0.00  0.00     0.000 C 
BRANCH  41  42
ATOM     42  C   UNL d   1     -29.184 -18.070  22.909  0.00  0.00     0.004 C 
BRANCH  42  43
ATOM     43  C   UNL d   1     -28.726 -19.504  23.183  0.00  0.00     0.027 C 
BRANCH  43  44
ATOM     44  C   UNL d   1     -28.523 -20.288  21.914  0.00  0.00    -0.031 C 
ATOM     45  C   UNL d   1     -27.326 -20.561  21.379  0.00  0.00    -0.031 C 
BRANCH  45  46
ATOM     46  C   UNL d   1     -26.053 -20.135  22.033  0.00  0.00     0.027 C 
BRANCH  46  47
ATOM     47  C   UNL d   1     -25.047 -19.579  21.046  0.00  0.00     0.004 C 
BRANCH  47  48
ATOM     48  C   UNL d   1     -24.171 -18.563  21.765  0.00  0.00     0.000 C 
BRANCH  48  49
ATOM     49  C   UNL d   1     -24.042 -17.302  20.935  0.00  0.00     0.000 C 
BRANCH  49  50
ATOM     50  C   UNL d   1     -25.059 -17.306  19.804  0.00  0.00     0.000 C 
BRANCH  50  51
ATOM     51  C   UNL d   1     -25.348 -15.879  19.362  0.00  0.00    -0.000 C 
BRANCH  51  52
ATOM     52  C   UNL d   1     -24.243 -14.934  19.815  0.00  0.00    -0.005 C 
ATOM     53  C   UNL d   1     -23.428 -14.457  18.626  0.00  0.00     0.005 C 
ENDBRANCH  51  52
ENDBRANCH  50  51
ENDBRANCH  49  50
ENDBRANCH  48  49
ENDBRANCH  47  48
ENDBRANCH  46  47
ENDBRANCH  45  46
ENDBRANCH  43  44
ENDBRANCH  42  43
ENDBRANCH  41  42
ENDBRANCH  40  41
ENDBRANCH  39  40
ENDBRANCH  38  39
ENDBRANCH  37  38
ENDBRANCH  35  37
ENDBRANCH  34  35
ENDBRANCH   1  34
BRANCH   1  54
ATOM     54  C   UNL d   1     -28.933 -21.526  16.276  0.00  0.00     0.213 C 
BRANCH  54  55
ATOM     55  O   UNL d   1     -27.726 -21.281  17.009  0.00  0.00    -0.319 OA
BRANCH  55  56
ATOM     56  C   UNL d   1     -26.777 -22.250  17.072  0.00  0.00     0.258 C 
ATOM     57  O   UNL d   1     -25.592 -22.110  16.780  0.00  0.00    -0.265 OA
BRANCH  56  58
ATOM     58  C   UNL d   1     -27.361 -23.515  17.670  0.00  0.00     0.111 C 
BRANCH  58  59
ATOM     59  C   UNL d   1     -27.926 -23.288  19.070  0.00  0.00     0.010 C 
BRANCH  59  60
ATOM     60  C   UNL d   1     -29.351 -23.806  19.242  0.00  0.00     0.000 C 
BRANCH  60  61
ATOM     61  C   UNL d   1     -29.805 -24.468  17.941  0.00  0.00     0.000 C 
BRANCH  61  62
ATOM     62  C   UNL d   1     -31.214 -25.028  18.060  0.00  0.00     0.000 C 
BRANCH  62  63
ATOM     63  C   UNL d   1     -31.306 -26.011  19.222  0.00  0.00     0.000 C 
BRANCH  63  64
ATOM     64  C   UNL d   1     -32.172 -27.201  18.831  0.00  0.00     0.000 C 
BRANCH  64  65
ATOM     65  C   UNL d   1     -31.370 -28.493  18.871  0.00  0.00     0.000 C 
BRANCH  65  66
ATOM     66  C   UNL d   1     -32.271 -29.667  19.233  0.00  0.00     0.000 C 
BRANCH  66  67
ATOM     67  C   UNL d   1     -31.623 -30.977  18.810  0.00  0.00     0.000 C 
BRANCH  67  68
ATOM     68  C   UNL d   1     -32.269 -32.153  19.528  0.00  0.00     0.000 C 
BRANCH  68  69
ATOM     69  C   UNL d   1     -31.289 -32.782  20.511  0.00  0.00     0.000 C 
BRANCH  69  70
ATOM     70  C   UNL d   1     -30.691 -34.054  19.925  0.00  0.00    -0.000 C 
BRANCH  70  71
ATOM     71  C   UNL d   1     -30.561 -35.137  20.991  0.00  0.00    -0.005 C 
ATOM     72  C   UNL d   1     -31.795 -35.178  21.874  0.00  0.00     0.005 C 
ENDBRANCH  70  71
ENDBRANCH  69  70
ENDBRANCH  68  69
ENDBRANCH  67  68
ENDBRANCH  66  67
ENDBRANCH  65  66
ENDBRANCH  64  65
ENDBRANCH  63  64
ENDBRANCH  62  63
ENDBRANCH  61  62
ENDBRANCH  60  61
ENDBRANCH  59  60
ENDBRANCH  58  59
ENDBRANCH  56  58
ENDBRANCH  55  56
ENDBRANCH  54  55
ENDBRANCH   1  54
TORSDOF 50
ENDMDL
MODEL 8
REMARK VINA RESULT:      -5.7      2.204      4.286
REMARK WARNING: 32 MAX_TORS EXCEEDED!!!
REMARK  50 active torsions:
REMARK  status: ('A' for Active; 'I' for Inactive)
REMARK    1  A    between atoms: C_3  and  C_2 
REMARK    2  A    between atoms: C_4  and  C_3 
REMARK    3  A    between atoms: C_5  and  C_4 
REMARK    4  A    between atoms: C_6  and  C_5 
REMARK    5  A    between atoms: C_7  and  C_6 
REMARK    6  A    between atoms: C_8  and  C_7 
REMARK    7  A    between atoms: C_9  and  C_8 
REMARK    8  A    between atoms: C_10  and  C_9 
REMARK    9  A    between atoms: C_11  and  C_10 
REMARK   10  A    between atoms: C_12  and  C_11 
REMARK   11  A    between atoms: C_13  and  C_12 
REMARK   12  A    between atoms: C_14  and  C_13 
REMARK   13  A    between atoms: C_15  and  C_14 
REMARK   14  A    between atoms: C_16  and  C_15 
REMARK   15  A    between atoms: O_17  and  C_16 
REMARK   16  A    between atoms: C_19  and  O_17 
REMARK   17  A    between atoms: C_20  and  C_19 
REMARK   18  A    between atoms: C_20  and  C_22 
REMARK   19  A    between atoms: C_20  and  O_21 
REMARK   20  A    between atoms: O_21  and  C_23 
REMARK   21  A    between atoms: C_22  and  O_24 
REMARK   22  A    between atoms: C_23  and  C_25 
REMARK   23  A    between atoms: O_24  and  P_27 
REMARK   24  A    between atoms: C_25  and  C_28 
REMARK   25  A    between atoms: P_27  and  O_31 
REMARK   26  A    between atoms: P_27  and  O_29 
REMARK   27  A    between atoms: C_28  and  C_32 
REMARK   28  A    between atoms: O_29  and  C_33 
REMARK   29  A    between atoms: C_32  and  C_34 
REMARK   30  A    between atoms: C_34  and  C_37 
REMARK   31  A    between atoms: C_35  and  O_38 
REMARK   32  A    between atoms: C_36  and  O_40 
REMARK   33  A    between atoms: C_37  and  C_42 
REMARK   34  A    between atoms: C_39  and  O_43 
REMARK   35  A    between atoms: C_41  and  O_45 
REMARK   36  A    between atoms: C_42  and  C_46 
REMARK   37  A    between atoms: O_44  and  P_47 
REMARK   38  A    between atoms: O_45  and  P_48 
REMARK   39  A    between atoms: C_46  and  C_49 
REMARK   40  A    between atoms: P_47  and  O_51 
REMARK   41  A    between atoms: P_47  and  O_52 
REMARK   42  A    between atoms: P_48  and  O_54 
REMARK   43  A    between atoms: P_48  and  O_55 
REMARK   44  A    between atoms: C_56  and  C_57 
REMARK   45  A    between atoms: C_57  and  C_58 
REMARK   46  A    between atoms: C_58  and  C_59 
REMARK   47  A    between atoms: C_59  and  C_60 
REMARK   48  A    between atoms: C_60  and  C_61 
REMARK   49  A    between atoms: C_61  and  C_62 
REMARK   50  A    between atoms: C_62  and  C_63 
ROOT
ATOM      1  C   UNL d   1     -28.231 -17.874  15.621  0.00  0.00     0.180 C 
ENDROOT
BRANCH   1   2
ATOM      2  C   UNL d   1     -28.783 -16.440  15.494  0.00  0.00     0.215 C 
BRANCH   2   3
ATOM      3  O   UNL d   1     -27.976 -15.579  14.677  0.00  0.00    -0.294 OA
BRANCH   3   4
ATOM      4  P   UNL d   1     -26.329 -16.082  14.504  0.00  0.00     0.393 P 
ATOM      5  O   UNL d   1     -26.012 -15.088  15.639  0.00  0.00    -0.631 OA
BRANCH   4   6
ATOM      6  O   UNL d   1     -26.044 -15.022  13.298  0.00  0.00    -0.307 OA
ATOM      7  H   UNL d   1     -26.828 -14.424  13.287  0.00  0.00     0.222 HD
ENDBRANCH   4   6
BRANCH   4   8
ATOM      8  O   UNL d   1     -24.682 -16.583  14.331  0.00  0.00    -0.286 OA
BRANCH   8   9
ATOM      9  C   UNL d   1     -24.596 -17.894  14.968  0.00  0.00     0.196 C 
ATOM     10  C   UNL d   1     -23.539 -17.963  16.072  0.00  0.00     0.181 C 
ATOM     11  C   UNL d   1     -22.139 -17.615  15.505  0.00  0.00     0.180 C 
ATOM     12  O   UNL d   1     -21.894 -18.461  14.390  0.00  0.00     0.000 OA
ATOM     13  C   UNL d   1     -22.885 -18.309  13.394  0.00  0.00     0.197 C 
ATOM     14  C   UNL d   1     -24.210 -18.881  13.853  0.00  0.00     0.182 C 
BRANCH  10  15
ATOM     15  O   UNL d   1     -23.501 -19.313  16.575  0.00  0.00    -0.390 OA
ATOM     16  H   UNL d   1     -23.008 -19.880  15.933  0.00  0.00     0.210 HD
ENDBRANCH  10  15
BRANCH  11  17
ATOM     17  O   UNL d   1     -22.053 -16.245  15.117  0.00  0.00    -0.390 OA
ATOM     18  H   UNL d   1     -22.935 -15.809  15.115  0.00  0.00     0.210 HD
ENDBRANCH  11  17
BRANCH  12  19
ATOM     19  P   UNL d   1     -21.382 -19.959  14.778  0.00  0.00     0.347 P 
ATOM     20  O   UNL d   1     -22.506 -20.901  14.569  0.00  0.00    -0.645 OA
BRANCH  19  21
ATOM     21  O   UNL d   1     -20.197 -20.243  13.729  0.00  0.00    -0.321 OA
ATOM     22  H   UNL d   1     -20.163 -21.083  13.227  0.00  0.00     0.220 HD
ENDBRANCH  19  21
BRANCH  19  23
ATOM     23  O   UNL d   1     -20.637 -19.974  16.175  0.00  0.00    -0.321 OA
ATOM     24  H   UNL d   1     -21.018 -19.333  16.827  0.00  0.00     0.220 HD
ENDBRANCH  19  23
ENDBRANCH  12  19
BRANCH  13  25
ATOM     25  O   UNL d   1     -22.824 -18.768  12.065  0.00  0.00    -0.286 OA
BRANCH  25  26
ATOM     26  P   UNL d   1     -21.819 -17.639  11.221  0.00  0.00     0.391 P 
ATOM     27  O   UNL d   1     -20.920 -16.630  10.467  0.00  0.00    -0.632 OA
BRANCH  26  28
ATOM     28  O   UNL d   1     -22.989 -17.695  10.092  0.00  0.00    -0.307 OA
ATOM     29  H   UNL d   1     -22.762 -18.076   9.227  0.00  0.00     0.222 HD
ENDBRANCH  26  28
BRANCH  26  30
ATOM     30  O   UNL d   1     -22.555 -16.532  12.153  0.00  0.00    -0.307 OA
ATOM     31  H   UNL d   1     -22.424 -15.585  11.953  0.00  0.00     0.222 HD
ENDBRANCH  26  30
ENDBRANCH  25  26
ENDBRANCH  13  25
BRANCH  14  32
ATOM     32  O   UNL d   1     -25.060 -18.943  12.696  0.00  0.00    -0.390 OA
ATOM     33  H   UNL d   1     -24.507 -18.895  11.877  0.00  0.00     0.210 HD
ENDBRANCH  14  32
ENDBRANCH   8   9
ENDBRANCH   4   8
ENDBRANCH   3   4
ENDBRANCH   2   3
ENDBRANCH   1   2
BRANCH   1  34
ATOM     34  O   UNL d   1     -29.089 -18.795  14.919  0.00  0.00    -0.312 OA
BRANCH  34  35
ATOM     35  C   UNL d   1     -28.448 -19.758  14.189  0.00  0.00     0.259 C 
ATOM     36  O   UNL d   1     -27.624 -19.543  13.314  0.00  0.00    -0.265 OA
BRANCH  35  37
ATOM     37  C   UNL d   1     -28.826 -21.137  14.661  0.00  0.00     0.111 C 
BRANCH  37  38
ATOM     38  C   UNL d   1     -29.815 -21.807  13.722  0.00  0.00     0.010 C 
BRANCH  38  39
ATOM     39  C   UNL d   1     -29.770 -23.325  13.867  0.00  0.00     0.000 C 
BRANCH  39  40
ATOM     40  C   UNL d   1     -28.771 -23.698  14.951  0.00  0.00     0.000 C 
BRANCH  40  41
ATOM     41  C   UNL d   1     -29.411 -24.524  16.061  0.00  0.00     0.000 C 
BRANCH  41  42
ATOM     42  C   UNL d   1     -30.907 -24.729  15.814  0.00  0.00     0.004 C 
BRANCH  42  43
ATOM     43  C   UNL d   1     -31.704 -25.088  17.070  0.00  0.00     0.027 C 
BRANCH  43  44
ATOM     44  C   UNL d   1     -30.948 -24.772  18.333  0.00  0.00    -0.031 C 
ATOM     45  C   UNL d   1     -31.102 -25.430  19.489  0.00  0.00    -0.031 C 
BRANCH  45  46
ATOM     46  C   UNL d   1     -32.034 -26.589  19.620  0.00  0.00     0.027 C 
BRANCH  46  47
ATOM     47  C   UNL d   1     -31.307 -27.911  19.756  0.00  0.00     0.004 C 
BRANCH  47  48
ATOM     48  C   UNL d   1     -30.981 -28.433  18.364  0.00  0.00     0.000 C 
BRANCH  48  49
ATOM     49  C   UNL d   1     -31.316 -29.908  18.265  0.00  0.00     0.000 C 
BRANCH  49  50
ATOM     50  C   UNL d   1     -30.673 -30.675  19.412  0.00  0.00     0.000 C 
BRANCH  50  51
ATOM     51  C   UNL d   1     -30.863 -32.170  19.205  0.00  0.00    -0.000 C 
BRANCH  51  52
ATOM     52  C   UNL d   1     -32.328 -32.505  18.963  0.00  0.00    -0.005 C 
ATOM     53  C   UNL d   1     -33.094 -32.533  20.274  0.00  0.00     0.005 C 
ENDBRANCH  51  52
ENDBRANCH  50  51
ENDBRANCH  49  50
ENDBRANCH  48  49
ENDBRANCH  47  48
ENDBRANCH  46  47
ENDBRANCH  45  46
ENDBRANCH  43  44
ENDBRANCH  42  43
ENDBRANCH  41  42
ENDBRANCH  40  41
ENDBRANCH  39  40
ENDBRANCH  38  39
ENDBRANCH  37  38
ENDBRANCH  35  37
ENDBRANCH  34  35
ENDBRANCH   1  34
BRANCH   1  54
ATOM     54  C   UNL d   1     -28.164 -18.257  17.105  0.00  0.00     0.213 C 
BRANCH  54  55
ATOM     55  O   UNL d   1     -27.641 -17.205  17.928  0.00  0.00    -0.319 OA
BRANCH  55  56
ATOM     56  C   UNL d   1     -26.460 -17.389  18.571  0.00  0.00     0.258 C 
ATOM     57  O   UNL d   1     -25.655 -16.504  18.853  0.00  0.00    -0.265 OA
BRANCH  56  58
ATOM     58  C   UNL d   1     -26.320 -18.835  19.004  0.00  0.00     0.111 C 
BRANCH  58  59
ATOM     59  C   UNL d   1     -25.458 -18.985  20.256  0.00  0.00     0.010 C 
BRANCH  59  60
ATOM     60  C   UNL d   1     -25.950 -20.075  21.204  0.00  0.00     0.000 C 
BRANCH  60  61
ATOM     61  C   UNL d   1     -26.280 -19.451  22.559  0.00  0.00     0.000 C 
BRANCH  61  62
ATOM     62  C   UNL d   1     -27.693 -19.794  23.005  0.00  0.00     0.000 C 
BRANCH  62  63
ATOM     63  C   UNL d   1     -28.596 -18.568  22.921  0.00  0.00     0.000 C 
BRANCH  63  64
ATOM     64  C   UNL d   1     -30.026 -18.948  23.282  0.00  0.00     0.000 C 
BRANCH  64  65
ATOM     65  C   UNL d   1     -30.810 -19.353  22.043  0.00  0.00     0.000 C 
BRANCH  65  66
ATOM     66  C   UNL d   1     -31.423 -20.735  22.230  0.00  0.00     0.000 C 
BRANCH  66  67
ATOM     67  C   UNL d   1     -31.614 -21.413  20.881  0.00  0.00     0.000 C 
BRANCH  67  68
ATOM     68  C   UNL d   1     -30.646 -20.845  19.853  0.00  0.00     0.000 C 
BRANCH  68  69
ATOM     69  C   UNL d   1     -29.534 -21.845  19.558  0.00  0.00     0.000 C 
BRANCH  69  70
ATOM     70  C   UNL d   1     -28.945 -21.593  18.176  0.00  0.00    -0.000 C 
BRANCH  70  71
ATOM     71  C   UNL d   1     -27.525 -22.141  18.080  0.00  0.00    -0.005 C 
ATOM     72  C   UNL d   1     -27.129 -22.847  19.364  0.00  0.00     0.005 C 
ENDBRANCH  70  71
ENDBRANCH  69  70
ENDBRANCH  68  69
ENDBRANCH  67  68
ENDBRANCH  66  67
ENDBRANCH  65  66
ENDBRANCH  64  65
ENDBRANCH  63  64
ENDBRANCH  62  63
ENDBRANCH  61  62
ENDBRANCH  60  61
ENDBRANCH  59  60
ENDBRANCH  58  59
ENDBRANCH  56  58
ENDBRANCH  55  56
ENDBRANCH  54  55
ENDBRANCH   1  54
TORSDOF 50
ENDMDL
MODEL 9
REMARK VINA RESULT:      -5.7      2.420      4.628
REMARK WARNING: 32 MAX_TORS EXCEEDED!!!
REMARK  50 active torsions:
REMARK  status: ('A' for Active; 'I' for Inactive)
REMARK    1  A    between atoms: C_3  and  C_2 
REMARK    2  A    between atoms: C_4  and  C_3 
REMARK    3  A    between atoms: C_5  and  C_4 
REMARK    4  A    between atoms: C_6  and  C_5 
REMARK    5  A    between atoms: C_7  and  C_6 
REMARK    6  A    between atoms: C_8  and  C_7 
REMARK    7  A    between atoms: C_9  and  C_8 
REMARK    8  A    between atoms: C_10  and  C_9 
REMARK    9  A    between atoms: C_11  and  C_10 
REMARK   10  A    between atoms: C_12  and  C_11 
REMARK   11  A    between atoms: C_13  and  C_12 
REMARK   12  A    between atoms: C_14  and  C_13 
REMARK   13  A    between atoms: C_15  and  C_14 
REMARK   14  A    between atoms: C_16  and  C_15 
REMARK   15  A    between atoms: O_17  and  C_16 
REMARK   16  A    between atoms: C_19  and  O_17 
REMARK   17  A    between atoms: C_20  and  C_19 
REMARK   18  A    between atoms: C_20  and  C_22 
REMARK   19  A    between atoms: C_20  and  O_21 
REMARK   20  A    between atoms: O_21  and  C_23 
REMARK   21  A    between atoms: C_22  and  O_24 
REMARK   22  A    between atoms: C_23  and  C_25 
REMARK   23  A    between atoms: O_24  and  P_27 
REMARK   24  A    between atoms: C_25  and  C_28 
REMARK   25  A    between atoms: P_27  and  O_31 
REMARK   26  A    between atoms: P_27  and  O_29 
REMARK   27  A    between atoms: C_28  and  C_32 
REMARK   28  A    between atoms: O_29  and  C_33 
REMARK   29  A    between atoms: C_32  and  C_34 
REMARK   30  A    between atoms: C_34  and  C_37 
REMARK   31  A    between atoms: C_35  and  O_38 
REMARK   32  A    between atoms: C_36  and  O_40 
REMARK   33  A    between atoms: C_37  and  C_42 
REMARK   34  A    between atoms: C_39  and  O_43 
REMARK   35  A    between atoms: C_41  and  O_45 
REMARK   36  A    between atoms: C_42  and  C_46 
REMARK   37  A    between atoms: O_44  and  P_47 
REMARK   38  A    between atoms: O_45  and  P_48 
REMARK   39  A    between atoms: C_46  and  C_49 
REMARK   40  A    between atoms: P_47  and  O_51 
REMARK   41  A    between atoms: P_47  and  O_52 
REMARK   42  A    between atoms: P_48  and  O_54 
REMARK   43  A    between atoms: P_48  and  O_55 
REMARK   44  A    between atoms: C_56  and  C_57 
REMARK   45  A    between atoms: C_57  and  C_58 
REMARK   46  A    between atoms: C_58  and  C_59 
REMARK   47  A    between atoms: C_59  and  C_60 
REMARK   48  A    between atoms: C_60  and  C_61 
REMARK   49  A    between atoms: C_61  and  C_62 
REMARK   50  A    between atoms: C_62  and  C_63 
ROOT
ATOM      1  C   UNL d   1     -28.223 -17.613  15.566  0.00  0.00     0.180 C 
ENDROOT
BRANCH   1   2
ATOM      2  C   UNL d   1     -28.896 -16.447  14.813  0.00  0.00     0.215 C 
BRANCH   2   3
ATOM      3  O   UNL d   1     -28.086 -15.891  13.767  0.00  0.00    -0.294 OA
BRANCH   3   4
ATOM      4  P   UNL d   1     -26.386 -16.164  13.944  0.00  0.00     0.393 P 
ATOM      5  O   UNL d   1     -26.320 -14.735  14.522  0.00  0.00    -0.631 OA
BRANCH   4   6
ATOM      6  O   UNL d   1     -26.069 -15.716  12.409  0.00  0.00    -0.307 OA
ATOM      7  H   UNL d   1     -26.904 -15.310  12.079  0.00  0.00     0.222 HD
ENDBRANCH   4   6
BRANCH   4   8
ATOM      8  O   UNL d   1     -24.686 -16.435  14.122  0.00  0.00    -0.286 OA
BRANCH   8   9
ATOM      9  C   UNL d   1     -24.558 -17.714  14.814  0.00  0.00     0.196 C 
ATOM     10  C   UNL d   1     -23.466 -17.716  15.886  0.00  0.00     0.181 C 
ATOM     11  C   UNL d   1     -22.091 -17.371  15.260  0.00  0.00     0.180 C 
ATOM     12  O   UNL d   1     -21.865 -18.262  14.177  0.00  0.00     0.000 OA
ATOM     13  C   UNL d   1     -22.889 -18.171  13.207  0.00  0.00     0.197 C 
ATOM     14  C   UNL d   1     -24.189 -18.744  13.731  0.00  0.00     0.182 C 
BRANCH  10  15
ATOM     15  O   UNL d   1     -23.389 -19.042  16.446  0.00  0.00    -0.390 OA
ATOM     16  H   UNL d   1     -23.152 -18.971  17.402  0.00  0.00     0.210 HD
ENDBRANCH  10  15
BRANCH  11  17
ATOM     17  O   UNL d   1     -22.041 -16.018  14.810  0.00  0.00    -0.390 OA
ATOM     18  H   UNL d   1     -21.442 -15.911  14.037  0.00  0.00     0.210 HD
ENDBRANCH  11  17
BRANCH  12  19
ATOM     19  P   UNL d   1     -21.315 -19.732  14.615  0.00  0.00     0.347 P 
ATOM     20  O   UNL d   1     -22.428 -20.700  14.487  0.00  0.00    -0.645 OA
BRANCH  19  21
ATOM     21  O   UNL d   1     -20.161 -20.045  13.540  0.00  0.00    -0.321 OA
ATOM     22  H   UNL d   1     -20.128 -20.906  13.076  0.00  0.00     0.220 HD
ENDBRANCH  19  21
BRANCH  19  23
ATOM     23  O   UNL d   1     -20.524 -19.672  15.986  0.00  0.00    -0.321 OA
ATOM     24  H   UNL d   1     -19.742 -19.063  15.958  0.00  0.00     0.220 HD
ENDBRANCH  19  23
ENDBRANCH  12  19
BRANCH  13  25
ATOM     25  O   UNL d   1     -22.860 -18.688  11.898  0.00  0.00    -0.286 OA
BRANCH  25  26
ATOM     26  P   UNL d   1     -21.842 -17.622  10.991  0.00  0.00     0.391 P 
ATOM     27  O   UNL d   1     -20.930 -16.668  10.181  0.00  0.00    -0.632 OA
BRANCH  26  28
ATOM     28  O   UNL d   1     -23.040 -17.680   9.892  0.00  0.00    -0.307 OA
ATOM     29  H   UNL d   1     -22.845 -18.099   9.036  0.00  0.00     0.222 HD
ENDBRANCH  26  28
BRANCH  26  30
ATOM     30  O   UNL d   1     -22.521 -16.460  11.900  0.00  0.00    -0.307 OA
ATOM     31  H   UNL d   1     -22.868 -16.694  12.783  0.00  0.00     0.222 HD
ENDBRANCH  26  30
ENDBRANCH  25  26
ENDBRANCH  13  25
BRANCH  14  32
ATOM     32  O   UNL d   1     -25.072 -18.872  12.605  0.00  0.00    -0.390 OA
ATOM     33  H   UNL d   1     -25.996 -19.017  12.925  0.00  0.00     0.210 HD
ENDBRANCH  14  32
ENDBRANCH   8   9
ENDBRANCH   4   8
ENDBRANCH   3   4
ENDBRANCH   2   3
ENDBRANCH   1   2
BRANCH   1  34
ATOM     34  O   UNL d   1     -28.994 -18.819  15.392  0.00  0.00    -0.312 OA
BRANCH  34  35
ATOM     35  C   UNL d   1     -28.354 -19.838  14.743  0.00  0.00     0.259 C 
ATOM     36  O   UNL d   1     -27.751 -19.728  13.686  0.00  0.00    -0.265 OA
BRANCH  35  37
ATOM     37  C   UNL d   1     -28.412 -21.113  15.543  0.00  0.00     0.111 C 
BRANCH  37  38
ATOM     38  C   UNL d   1     -29.774 -21.780  15.449  0.00  0.00     0.010 C 
BRANCH  38  39
ATOM     39  C   UNL d   1     -29.645 -23.235  15.006  0.00  0.00     0.000 C 
BRANCH  39  40
ATOM     40  C   UNL d   1     -28.615 -23.936  15.877  0.00  0.00     0.000 C 
BRANCH  40  41
ATOM     41  C   UNL d   1     -29.225 -25.083  16.676  0.00  0.00     0.000 C 
BRANCH  41  42
ATOM     42  C   UNL d   1     -30.696 -25.298  16.313  0.00  0.00     0.004 C 
BRANCH  42  43
ATOM     43  C   UNL d   1     -31.618 -25.478  17.520  0.00  0.00     0.027 C 
BRANCH  43  44
ATOM     44  C   UNL d   1     -30.912 -25.200  18.821  0.00  0.00    -0.031 C 
ATOM     45  C   UNL d   1     -31.002 -25.977  19.908  0.00  0.00    -0.031 C 
BRANCH  45  46
ATOM     46  C   UNL d   1     -31.798 -27.240  19.913  0.00  0.00     0.027 C 
BRANCH  46  47
ATOM     47  C   UNL d   1     -30.934 -28.477  19.774  0.00  0.00     0.004 C 
BRANCH  47  48
ATOM     48  C   UNL d   1     -30.951 -28.920  18.318  0.00  0.00     0.000 C 
BRANCH  48  49
ATOM     49  C   UNL d   1     -31.845 -30.133  18.150  0.00  0.00     0.000 C 
BRANCH  49  50
ATOM     50  C   UNL d   1     -31.281 -31.317  18.923  0.00  0.00     0.000 C 
BRANCH  50  51
ATOM     51  C   UNL d   1     -32.329 -32.415  19.022  0.00  0.00    -0.000 C 
BRANCH  51  52
ATOM     52  C   UNL d   1     -32.409 -32.966  20.440  0.00  0.00    -0.005 C 
ATOM     53  C   UNL d   1     -31.042 -32.942  21.100  0.00  0.00     0.005 C 
ENDBRANCH  51  52
ENDBRANCH  50  51
ENDBRANCH  49  50
ENDBRANCH  48  49
ENDBRANCH  47  48
ENDBRANCH  46  47
ENDBRANCH  45  46
ENDBRANCH  43  44
ENDBRANCH  42  43
ENDBRANCH  41  42
ENDBRANCH  40  41
ENDBRANCH  39  40
ENDBRANCH  38  39
ENDBRANCH  37  38
ENDBRANCH  35  37
ENDBRANCH  34  35
ENDBRANCH   1  34
BRANCH   1  54
ATOM     54  C   UNL d   1     -28.137 -17.264  17.057  0.00  0.00     0.213 C 
BRANCH  54  55
ATOM     55  O   UNL d   1     -29.410 -17.309  17.715  0.00  0.00    -0.319 OA
BRANCH  55  56
ATOM     56  C   UNL d   1     -29.571 -16.662  18.897  0.00  0.00     0.258 C 
ATOM     57  O   UNL d   1     -30.633 -16.222  19.332  0.00  0.00    -0.265 OA
BRANCH  56  58
ATOM     58  C   UNL d   1     -28.269 -16.656  19.672  0.00  0.00     0.111 C 
BRANCH  58  59
ATOM     59  C   UNL d   1     -28.491 -16.562  21.180  0.00  0.00     0.010 C 
BRANCH  59  60
ATOM     60  C   UNL d   1     -27.767 -17.649  21.969  0.00  0.00     0.000 C 
BRANCH  60  61
ATOM     61  C   UNL d   1     -28.790 -18.463  22.760  0.00  0.00     0.000 C 
BRANCH  61  62
ATOM     62  C   UNL d   1     -28.885 -19.892  22.249  0.00  0.00     0.000 C 
BRANCH  62  63
ATOM     63  C   UNL d   1     -29.694 -19.949  20.957  0.00  0.00     0.000 C 
BRANCH  63  64
ATOM     64  C   UNL d   1     -30.020 -21.396  20.610  0.00  0.00     0.000 C 
BRANCH  64  65
ATOM     65  C   UNL d   1     -29.461 -21.767  19.245  0.00  0.00     0.000 C 
BRANCH  65  66
ATOM     66  C   UNL d   1     -28.305 -22.747  19.392  0.00  0.00     0.000 C 
BRANCH  66  67
ATOM     67  C   UNL d   1     -27.014 -22.118  18.886  0.00  0.00     0.000 C 
BRANCH  67  68
ATOM     68  C   UNL d   1     -26.400 -21.222  19.952  0.00  0.00     0.000 C 
BRANCH  68  69
ATOM     69  C   UNL d   1     -26.257 -19.796  19.434  0.00  0.00     0.000 C 
BRANCH  69  70
ATOM     70  C   UNL d   1     -24.808 -19.337  19.530  0.00  0.00    -0.000 C 
BRANCH  70  71
ATOM     71  C   UNL d   1     -24.442 -18.983  20.967  0.00  0.00    -0.005 C 
ATOM     72  C   UNL d   1     -24.145 -17.500  21.099  0.00  0.00     0.005 C 
ENDBRANCH  70  71
ENDBRANCH  69  70
ENDBRANCH  68  69
ENDBRANCH  67  68
ENDBRANCH  66  67
ENDBRANCH  65  66
ENDBRANCH  64  65
ENDBRANCH  63  64
ENDBRANCH  62  63
ENDBRANCH  61  62
ENDBRANCH  60  61
ENDBRANCH  59  60
ENDBRANCH  58  59
ENDBRANCH  56  58
ENDBRANCH  55  56
ENDBRANCH  54  55
ENDBRANCH   1  54
TORSDOF 50
ENDMDL
