MODEL 1
REMARK VINA RESULT:      -2.7      0.000      0.000
REMARK  3 active torsions:
REMARK  status: ('A' for Active; 'I' for Inactive)
REMARK    1  A    between atoms: C_2  and  O_1 
REMARK    2  A    between atoms: C_3  and  C_2 
REMARK    3  A    between atoms: N_4  and  C_3 
ROOT
ATOM      1  C   UNL d   1      22.139  37.575  20.974  0.00  0.00     0.262 C 
ENDROOT
BRANCH   1   2
ATOM      2  N   UNL d   1      21.219  38.172  22.073  0.00  0.00    -0.077 N 
ATOM      3  C   UNL d   1      21.933  39.253  22.869  0.00  0.00     0.271 C 
ATOM      4  C   UNL d   1      19.937  38.747  21.475  0.00  0.00     0.271 C 
ATOM      5  C   UNL d   1      20.830  37.038  23.022  0.00  0.00     0.271 C 
ENDBRANCH   1   2
BRANCH   1   6
ATOM      6  C   UNL d   1      22.761  36.210  21.313  0.00  0.00     0.192 C 
BRANCH   6   7
ATOM      7  O   UNL d   1      24.127  36.341  21.681  0.00  0.00    -0.399 OA
ATOM      8  H   UNL d   1      24.236  37.207  22.118  0.00  0.00     0.209 HD
ENDBRANCH   6   7
ENDBRANCH   1   6
TORSDOF 3
ENDMDL
MODEL 2
REMARK VINA RESULT:      -2.6      1.813      2.400
REMARK  3 active torsions:
REMARK  status: ('A' for Active; 'I' for Inactive)
REMARK    1  A    between atoms: C_2  and  O_1 
REMARK    2  A    between atoms: C_3  and  C_2 
REMARK    3  A    between atoms: N_4  and  C_3 
ROOT
ATOM      1  C   UNL d   1      20.835  38.791  20.548  0.00  0.00     0.262 C 
ENDROOT
BRANCH   1   2
ATOM      2  N   UNL d   1      20.791  38.699  22.097  0.00  0.00    -0.077 N 
ATOM      3  C   UNL d   1      20.960  37.265  22.574  0.00  0.00     0.271 C 
ATOM      4  C   UNL d   1      21.866  39.575  22.737  0.00  0.00     0.271 C 
ATOM      5  C   UNL d   1      19.428  39.213  22.556  0.00  0.00     0.271 C 
ENDBRANCH   1   2
BRANCH   1   6
ATOM      6  C   UNL d   1      21.213  37.486  19.827  0.00  0.00     0.192 C 
BRANCH   6   7
ATOM      7  O   UNL d   1      22.329  37.674  18.967  0.00  0.00    -0.399 OA
ATOM      8  H   UNL d   1      22.857  38.413  19.324  0.00  0.00     0.209 HD
ENDBRANCH   6   7
ENDBRANCH   1   6
TORSDOF 3
ENDMDL
MODEL 3
REMARK VINA RESULT:      -2.4      5.813      6.252
REMARK  3 active torsions:
REMARK  status: ('A' for Active; 'I' for Inactive)
REMARK    1  A    between atoms: C_2  and  O_1 
REMARK    2  A    between atoms: C_3  and  C_2 
REMARK    3  A    between atoms: N_4  and  C_3 
ROOT
ATOM      1  C   UNL d   1      20.374  37.975  16.813  0.00  0.00     0.262 C 
ENDROOT
BRANCH   1   2
ATOM      2  N   UNL d   1      18.928  37.411  16.821  0.00  0.00    -0.077 N 
ATOM      3  C   UNL d   1      18.007  38.254  17.689  0.00  0.00     0.271 C 
ATOM      4  C   UNL d   1      18.355  37.326  15.408  0.00  0.00     0.271 C 
ATOM      5  C   UNL d   1      18.984  35.994  17.393  0.00  0.00     0.271 C 
ENDBRANCH   1   2
BRANCH   1   6
ATOM      6  C   UNL d   1      21.060  37.994  15.436  0.00  0.00     0.192 C 
BRANCH   6   7
ATOM      7  O   UNL d   1      21.559  39.287  15.125  0.00  0.00    -0.399 OA
ATOM      8  H   UNL d   1      22.202  39.191  14.396  0.00  0.00     0.209 HD
ENDBRANCH   6   7
ENDBRANCH   1   6
TORSDOF 3
ENDMDL
MODEL 4
REMARK VINA RESULT:      -2.3     14.314     15.115
REMARK  3 active torsions:
REMARK  status: ('A' for Active; 'I' for Inactive)
REMARK    1  A    between atoms: C_2  and  O_1 
REMARK    2  A    between atoms: C_3  and  C_2 
REMARK    3  A    between atoms: N_4  and  C_3 
ROOT
ATOM      1  C   UNL d   1      29.024  38.304   7.937  0.00  0.00     0.262 C 
ENDROOT
BRANCH   1   2
ATOM      2  N   UNL d   1      28.749  38.688   9.415  0.00  0.00    -0.077 N 
ATOM      3  C   UNL d   1      28.133  40.074   9.525  0.00  0.00     0.271 C 
ATOM      4  C   UNL d   1      27.832  37.672  10.094  0.00  0.00     0.271 C 
ATOM      5  C   UNL d   1      30.087  38.684  10.155  0.00  0.00     0.271 C 
ENDBRANCH   1   2
BRANCH   1   6
ATOM      6  C   UNL d   1      27.771  38.159   7.056  0.00  0.00     0.192 C 
BRANCH   6   7
ATOM      7  O   UNL d   1      27.796  39.073   5.968  0.00  0.00    -0.399 OA
ATOM      8  H   UNL d   1      28.657  39.532   5.984  0.00  0.00     0.209 HD
ENDBRANCH   6   7
ENDBRANCH   1   6
TORSDOF 3
ENDMDL
MODEL 5
REMARK VINA RESULT:      -2.1      2.348      2.991
REMARK  3 active torsions:
REMARK  status: ('A' for Active; 'I' for Inactive)
REMARK    1  A    between atoms: C_2  and  O_1 
REMARK    2  A    between atoms: C_3  and  C_2 
REMARK    3  A    between atoms: N_4  and  C_3 
ROOT
ATOM      1  C   UNL d   1      22.044  37.708  20.591  0.00  0.00     0.262 C 
ENDROOT
BRANCH   1   2
ATOM      2  N   UNL d   1      21.587  36.484  21.428  0.00  0.00    -0.077 N 
ATOM      3  C   UNL d   1      21.302  36.870  22.870  0.00  0.00     0.271 C 
ATOM      4  C   UNL d   1      20.346  35.829  20.825  0.00  0.00     0.271 C 
ATOM      5  C   UNL d   1      22.719  35.457  21.409  0.00  0.00     0.271 C 
ENDBRANCH   1   2
BRANCH   1   6
ATOM      6  C   UNL d   1      20.908  38.513  19.937  0.00  0.00     0.192 C 
BRANCH   6   7
ATOM      7  O   UNL d   1      20.545  39.634  20.730  0.00  0.00    -0.399 OA
ATOM      8  H   UNL d   1      20.873  39.477  21.636  0.00  0.00     0.209 HD
ENDBRANCH   6   7
ENDBRANCH   1   6
TORSDOF 3
ENDMDL
MODEL 6
REMARK VINA RESULT:      -2.1     19.361     20.036
REMARK  3 active torsions:
REMARK  status: ('A' for Active; 'I' for Inactive)
REMARK    1  A    between atoms: C_2  and  O_1 
REMARK    2  A    between atoms: C_3  and  C_2 
REMARK    3  A    between atoms: N_4  and  C_3 
ROOT
ATOM      1  C   UNL d   1      21.646  36.306   1.664  0.00  0.00     0.262 C 
ENDROOT
BRANCH   1   2
ATOM      2  N   UNL d   1      20.106  36.219   1.833  0.00  0.00    -0.077 N 
ATOM      3  C   UNL d   1      19.407  37.402   1.183  0.00  0.00     0.271 C 
ATOM      4  C   UNL d   1      19.554  34.920   1.247  0.00  0.00     0.271 C 
ATOM      5  C   UNL d   1      19.800  36.228   3.330  0.00  0.00     0.271 C 
ENDBRANCH   1   2
BRANCH   1   6
ATOM      6  C   UNL d   1      22.381  37.085   2.769  0.00  0.00     0.192 C 
BRANCH   6   7
ATOM      7  O   UNL d   1      23.317  38.002   2.219  0.00  0.00    -0.399 OA
ATOM      8  H   UNL d   1      23.573  37.674   1.337  0.00  0.00     0.209 HD
ENDBRANCH   6   7
ENDBRANCH   1   6
TORSDOF 3
ENDMDL
MODEL 7
REMARK VINA RESULT:      -2.0     18.883     19.619
REMARK  3 active torsions:
REMARK  status: ('A' for Active; 'I' for Inactive)
REMARK    1  A    between atoms: C_2  and  O_1 
REMARK    2  A    between atoms: C_3  and  C_2 
REMARK    3  A    between atoms: N_4  and  C_3 
ROOT
ATOM      1  C   UNL d   1      22.030  36.557   1.876  0.00  0.00     0.262 C 
ENDROOT
BRANCH   1   2
ATOM      2  N   UNL d   1      20.673  36.059   2.441  0.00  0.00    -0.077 N 
ATOM      3  C   UNL d   1      20.564  34.544   2.372  0.00  0.00     0.271 C 
ATOM      4  C   UNL d   1      20.470  36.515   3.884  0.00  0.00     0.271 C 
ATOM      5  C   UNL d   1      19.560  36.672   1.591  0.00  0.00     0.271 C 
ENDBRANCH   1   2
BRANCH   1   6
ATOM      6  C   UNL d   1      22.541  37.879   2.474  0.00  0.00     0.192 C 
BRANCH   6   7
ATOM      7  O   UNL d   1      23.934  37.818   2.748  0.00  0.00    -0.399 OA
ATOM      8  H   UNL d   1      24.148  36.899   2.997  0.00  0.00     0.209 HD
ENDBRANCH   6   7
ENDBRANCH   1   6
TORSDOF 3
ENDMDL
MODEL 8
REMARK VINA RESULT:      -1.9      6.166      6.736
REMARK  3 active torsions:
REMARK  status: ('A' for Active; 'I' for Inactive)
REMARK    1  A    between atoms: C_2  and  O_1 
REMARK    2  A    between atoms: C_3  and  C_2 
REMARK    3  A    between atoms: N_4  and  C_3 
ROOT
ATOM      1  C   UNL d   1      20.261  35.939  15.477  0.00  0.00     0.262 C 
ENDROOT
BRANCH   1   2
ATOM      2  N   UNL d   1      19.650  37.154  16.225  0.00  0.00    -0.077 N 
ATOM      3  C   UNL d   1      19.370  36.827  17.683  0.00  0.00     0.271 C 
ATOM      4  C   UNL d   1      20.566  38.374  16.147  0.00  0.00     0.271 C 
ATOM      5  C   UNL d   1      18.332  37.510  15.538  0.00  0.00     0.271 C 
ENDBRANCH   1   2
BRANCH   1   6
ATOM      6  C   UNL d   1      20.975  36.276  14.157  0.00  0.00     0.192 C 
BRANCH   6   7
ATOM      7  O   UNL d   1      22.373  36.038  14.250  0.00  0.00    -0.399 OA
ATOM      8  H   UNL d   1      22.831  36.877  14.054  0.00  0.00     0.209 HD
ENDBRANCH   6   7
ENDBRANCH   1   6
TORSDOF 3
ENDMDL
MODEL 9
REMARK VINA RESULT:      -1.7     29.769     30.582
REMARK  3 active torsions:
REMARK  status: ('A' for Active; 'I' for Inactive)
REMARK    1  A    between atoms: C_2  and  O_1 
REMARK    2  A    between atoms: C_3  and  C_2 
REMARK    3  A    between atoms: N_4  and  C_3 
ROOT
ATOM      1  C   UNL d   1      33.370  35.457  -6.096  0.00  0.00     0.262 C 
ENDROOT
BRANCH   1   2
ATOM      2  N   UNL d   1      31.882  35.714  -6.453  0.00  0.00    -0.077 N 
ATOM      3  C   UNL d   1      31.741  36.341  -7.831  0.00  0.00     0.271 C 
ATOM      4  C   UNL d   1      31.065  34.425  -6.398  0.00  0.00     0.271 C 
ATOM      5  C   UNL d   1      31.312  36.678  -5.413  0.00  0.00     0.271 C 
ENDBRANCH   1   2
BRANCH   1   6
ATOM      6  C   UNL d   1      34.389  36.003  -7.111  0.00  0.00     0.192 C 
BRANCH   6   7
ATOM      7  O   UNL d   1      34.948  37.234  -6.671  0.00  0.00    -0.399 OA
ATOM      8  H   UNL d   1      35.919  37.137  -6.672  0.00  0.00     0.209 HD
ENDBRANCH   6   7
ENDBRANCH   1   6
TORSDOF 3
ENDMDL
