MODEL 1
REMARK VINA RESULT:      -1.4      0.000      0.000
REMARK  0 active torsions:
REMARK  status: ('A' for Active; 'I' for Inactive)
ROOT
ATOM      1  N   UNL d   1      35.089  -3.874   5.302  0.00  0.00    -0.084 N 
ATOM      2  H   UNL d   1      34.447  -3.151   5.648  0.00  0.00     0.271 HD
ATOM      3  H   UNL d   1      34.927  -4.748   5.815  0.00  0.00     0.271 HD
ATOM      4  H   UNL d   1      36.058  -3.567   5.443  0.00  0.00     0.271 HD
ATOM      5  H   UNL d   1      34.921  -4.029   4.301  0.00  0.00     0.271 HD
ENDROOT
TORSDOF 0
ENDMDL
MODEL 2
REMARK VINA RESULT:      -1.3     38.383     38.383
REMARK  0 active torsions:
REMARK  status: ('A' for Active; 'I' for Inactive)
ROOT
ATOM      1  N   UNL d   1      36.077  24.719 -20.285  0.00  0.00    -0.084 N 
ATOM      2  H   UNL d   1      35.980  23.701 -20.194  0.00  0.00     0.271 HD
ATOM      3  H   UNL d   1      35.717  25.174 -19.438  0.00  0.00     0.271 HD
ATOM      4  H   UNL d   1      35.543  25.042 -21.100  0.00  0.00     0.271 HD
ATOM      5  H   UNL d   1      37.068  24.959 -20.408  0.00  0.00     0.271 HD
ENDROOT
TORSDOF 0
ENDMDL
MODEL 3
REMARK VINA RESULT:      -1.2     26.993     26.993
REMARK  0 active torsions:
REMARK  status: ('A' for Active; 'I' for Inactive)
ROOT
ATOM      1  N   UNL d   1      33.821  15.669 -13.276  0.00  0.00    -0.084 N 
ATOM      2  H   UNL d   1      33.842  15.084 -12.432  0.00  0.00     0.271 HD
ATOM      3  H   UNL d   1      33.175  16.454 -13.131  0.00  0.00     0.271 HD
ATOM      4  H   UNL d   1      33.504  15.107 -14.074  0.00  0.00     0.271 HD
ATOM      5  H   UNL d   1      34.763  16.031 -13.464  0.00  0.00     0.271 HD
ENDROOT
TORSDOF 0
ENDMDL
MODEL 4
REMARK VINA RESULT:      -1.2     34.278     34.278
REMARK  0 active torsions:
REMARK  status: ('A' for Active; 'I' for Inactive)
ROOT
ATOM      1  N   UNL d   1      31.869  21.404 -17.624  0.00  0.00    -0.084 N 
ATOM      2  H   UNL d   1      31.773  20.386 -17.533  0.00  0.00     0.271 HD
ATOM      3  H   UNL d   1      31.510  21.859 -16.777  0.00  0.00     0.271 HD
ATOM      4  H   UNL d   1      31.335  21.727 -18.439  0.00  0.00     0.271 HD
ATOM      5  H   UNL d   1      32.860  21.644 -17.748  0.00  0.00     0.271 HD
ENDROOT
TORSDOF 0
ENDMDL
MODEL 5
REMARK VINA RESULT:      -1.2     20.045     20.045
REMARK  0 active torsions:
REMARK  status: ('A' for Active; 'I' for Inactive)
ROOT
ATOM      1  N   UNL d   1      28.691   8.936  19.330  0.00  0.00    -0.084 N 
ATOM      2  H   UNL d   1      28.401   8.566  20.243  0.00  0.00     0.271 HD
ATOM      3  H   UNL d   1      29.557   9.477  19.439  0.00  0.00     0.271 HD
ATOM      4  H   UNL d   1      27.952   9.543  18.957  0.00  0.00     0.271 HD
ATOM      5  H   UNL d   1      28.854   8.156  18.681  0.00  0.00     0.271 HD
ENDROOT
TORSDOF 0
ENDMDL
MODEL 6
REMARK VINA RESULT:      -1.1     23.238     23.238
REMARK  0 active torsions:
REMARK  status: ('A' for Active; 'I' for Inactive)
ROOT
ATOM      1  N   UNL d   1      27.137  13.586  18.414  0.00  0.00    -0.084 N 
ATOM      2  H   UNL d   1      26.674  13.038  19.149  0.00  0.00     0.271 HD
ATOM      3  H   UNL d   1      28.137  13.671  18.631  0.00  0.00     0.271 HD
ATOM      4  H   UNL d   1      26.716  14.520  18.367  0.00  0.00     0.271 HD
ATOM      5  H   UNL d   1      27.023  13.112  17.510  0.00  0.00     0.271 HD
ENDROOT
TORSDOF 0
ENDMDL
MODEL 7
REMARK VINA RESULT:      -1.1     20.482     20.482
REMARK  0 active torsions:
REMARK  status: ('A' for Active; 'I' for Inactive)
ROOT
ATOM      1  N   UNL d   1      27.757  14.910   8.898  0.00  0.00    -0.084 N 
ATOM      2  H   UNL d   1      27.293  14.362   9.632  0.00  0.00     0.271 HD
ATOM      3  H   UNL d   1      28.757  14.996   9.114  0.00  0.00     0.271 HD
ATOM      4  H   UNL d   1      27.335  15.845   8.850  0.00  0.00     0.271 HD
ATOM      5  H   UNL d   1      27.642  14.437   7.994  0.00  0.00     0.271 HD
ENDROOT
TORSDOF 0
ENDMDL
MODEL 8
REMARK VINA RESULT:      -1.1     18.654     18.654
REMARK  0 active torsions:
REMARK  status: ('A' for Active; 'I' for Inactive)
ROOT
ATOM      1  N   UNL d   1      28.651  13.623   5.922  0.00  0.00    -0.084 N 
ATOM      2  H   UNL d   1      28.362  13.254   6.836  0.00  0.00     0.271 HD
ATOM      3  H   UNL d   1      29.517  14.164   6.031  0.00  0.00     0.271 HD
ATOM      4  H   UNL d   1      27.913  14.230   5.549  0.00  0.00     0.271 HD
ATOM      5  H   UNL d   1      28.814  12.844   5.274  0.00  0.00     0.271 HD
ENDROOT
TORSDOF 0
ENDMDL
MODEL 9
REMARK VINA RESULT:      -1.0     38.186     38.186
REMARK  0 active torsions:
REMARK  status: ('A' for Active; 'I' for Inactive)
ROOT
ATOM      1  N   UNL d   1      32.723  23.651 -21.060  0.00  0.00    -0.084 N 
ATOM      2  H   UNL d   1      32.348  24.603 -20.968  0.00  0.00     0.271 HD
ATOM      3  H   UNL d   1      33.741  23.695 -21.186  0.00  0.00     0.271 HD
ATOM      4  H   UNL d   1      32.297  23.193 -21.873  0.00  0.00     0.271 HD
ATOM      5  H   UNL d   1      32.506  23.115 -20.212  0.00  0.00     0.271 HD
ENDROOT
TORSDOF 0
ENDMDL
