MODEL 1
REMARK VINA RESULT:      -3.6      0.000      0.000
REMARK  2 active torsions:
REMARK  status: ('A' for Active; 'I' for Inactive)
REMARK    1  A    between atoms: C_2  and  O_1 
REMARK    2  A    between atoms: C_3  and  C_2 
ROOT
ATOM      1  C   UNL d   1      30.542  13.535  26.563  0.00  0.00     0.213 C 
ATOM      2  O   UNL d   1      31.136  12.957  27.448  0.00  0.00    -0.644 OA
ENDROOT
BRANCH   1   3
ATOM      3  C   UNL d   1      29.261  13.005  25.928  0.00  0.00     0.218 C 
ATOM      4  C   UNL d   1      29.369  11.733  25.147  0.00  0.00     0.103 C 
ATOM      5  O   UNL d   1      28.231  13.653  26.096  0.00  0.00    -0.286 OA
ENDBRANCH   1   3
BRANCH   1   6
ATOM      6  O   UNL d   1      30.896  14.707  26.003  0.00  0.00    -0.771 OA
ATOM      7  H   UNL d   1      30.768  14.650  25.025  0.00  0.00     0.168 HD
ENDBRANCH   1   6
TORSDOF 2
ENDMDL
MODEL 2
REMARK VINA RESULT:      -3.5      1.080      1.703
REMARK  2 active torsions:
REMARK  status: ('A' for Active; 'I' for Inactive)
REMARK    1  A    between atoms: C_2  and  O_1 
REMARK    2  A    between atoms: C_3  and  C_2 
ROOT
ATOM      1  C   UNL d   1      30.754  13.890  25.897  0.00  0.00     0.213 C 
ATOM      2  O   UNL d   1      30.710  14.924  25.265  0.00  0.00    -0.644 OA
ENDROOT
BRANCH   1   3
ATOM      3  C   UNL d   1      29.512  13.136  26.361  0.00  0.00     0.218 C 
ATOM      4  C   UNL d   1      29.734  11.934  27.223  0.00  0.00     0.103 C 
ATOM      5  O   UNL d   1      28.419  13.561  25.998  0.00  0.00    -0.286 OA
ENDBRANCH   1   3
BRANCH   1   6
ATOM      6  O   UNL d   1      31.870  13.245  26.286  0.00  0.00    -0.771 OA
ATOM      7  H   UNL d   1      32.393  12.994  25.488  0.00  0.00     0.168 HD
ENDBRANCH   1   6
TORSDOF 2
ENDMDL
MODEL 3
REMARK VINA RESULT:      -3.2      1.718      2.649
REMARK  2 active torsions:
REMARK  status: ('A' for Active; 'I' for Inactive)
REMARK    1  A    between atoms: C_2  and  O_1 
REMARK    2  A    between atoms: C_3  and  C_2 
ROOT
ATOM      1  C   UNL d   1      29.098  13.303  25.106  0.00  0.00     0.213 C 
ATOM      2  O   UNL d   1      28.662  12.246  25.512  0.00  0.00    -0.644 OA
ENDROOT
BRANCH   1   3
ATOM      3  C   UNL d   1      30.486  13.827  25.457  0.00  0.00     0.218 C 
ATOM      4  C   UNL d   1      31.369  12.921  26.255  0.00  0.00     0.103 C 
ATOM      5  O   UNL d   1      30.786  14.951  25.065  0.00  0.00    -0.286 OA
ENDBRANCH   1   3
BRANCH   1   6
ATOM      6  O   UNL d   1      28.455  14.170  24.301  0.00  0.00    -0.771 OA
ATOM      7  H   UNL d   1      27.923  13.664  23.641  0.00  0.00     0.168 HD
ENDBRANCH   1   6
TORSDOF 2
ENDMDL
MODEL 4
REMARK VINA RESULT:      -3.0     28.540     29.675
REMARK  2 active torsions:
REMARK  status: ('A' for Active; 'I' for Inactive)
REMARK    1  A    between atoms: C_2  and  O_1 
REMARK    2  A    between atoms: C_3  and  C_2 
ROOT
ATOM      1  C   UNL d   1       0.804  18.486  33.041  0.00  0.00     0.213 C 
ATOM      2  O   UNL d   1      -0.297  18.169  32.643  0.00  0.00    -0.644 OA
ENDROOT
BRANCH   1   3
ATOM      3  C   UNL d   1       2.094  18.137  32.307  0.00  0.00     0.218 C 
ATOM      4  C   UNL d   1       2.766  16.857  32.692  0.00  0.00     0.103 C 
ATOM      5  O   UNL d   1       2.496  18.924  31.455  0.00  0.00    -0.286 OA
ENDBRANCH   1   3
BRANCH   1   6
ATOM      6  O   UNL d   1       1.073  19.180  34.164  0.00  0.00    -0.771 OA
ATOM      7  H   UNL d   1       1.804  18.731  34.653  0.00  0.00     0.168 HD
ENDBRANCH   1   6
TORSDOF 2
ENDMDL
MODEL 5
REMARK VINA RESULT:      -2.9      2.027      2.250
REMARK  2 active torsions:
REMARK  status: ('A' for Active; 'I' for Inactive)
REMARK    1  A    between atoms: C_2  and  O_1 
REMARK    2  A    between atoms: C_3  and  C_2 
ROOT
ATOM      1  C   UNL d   1      30.680  14.622  24.527  0.00  0.00     0.213 C 
ATOM      2  O   UNL d   1      31.046  14.610  25.683  0.00  0.00    -0.644 OA
ENDROOT
BRANCH   1   3
ATOM      3  C   UNL d   1      29.536  13.762  24.000  0.00  0.00     0.218 C 
ATOM      4  C   UNL d   1      29.907  12.463  23.357  0.00  0.00     0.103 C 
ATOM      5  O   UNL d   1      28.393  14.190  24.136  0.00  0.00    -0.286 OA
ENDBRANCH   1   3
BRANCH   1   6
ATOM      6  O   UNL d   1      31.201  15.372  23.537  0.00  0.00    -0.771 OA
ATOM      7  H   UNL d   1      32.118  15.641  23.784  0.00  0.00     0.168 HD
ENDBRANCH   1   6
TORSDOF 2
ENDMDL
MODEL 6
REMARK VINA RESULT:      -2.9     29.793     30.898
REMARK  2 active torsions:
REMARK  status: ('A' for Active; 'I' for Inactive)
REMARK    1  A    between atoms: C_2  and  O_1 
REMARK    2  A    between atoms: C_3  and  C_2 
ROOT
ATOM      1  C   UNL d   1       1.368  23.105  24.339  0.00  0.00     0.213 C 
ATOM      2  O   UNL d   1       2.202  22.240  24.174  0.00  0.00    -0.644 OA
ENDROOT
BRANCH   1   3
ATOM      3  C   UNL d   1      -0.061  22.818  24.788  0.00  0.00     0.218 C 
ATOM      4  C   UNL d   1      -0.239  21.791  25.861  0.00  0.00     0.103 C 
ATOM      5  O   UNL d   1      -0.966  23.442  24.242  0.00  0.00    -0.286 OA
ENDBRANCH   1   3
BRANCH   1   6
ATOM      6  O   UNL d   1       1.550  24.427  24.162  0.00  0.00    -0.771 OA
ATOM      7  H   UNL d   1       1.566  24.624  23.194  0.00  0.00     0.168 HD
ENDBRANCH   1   6
TORSDOF 2
ENDMDL
MODEL 7
REMARK VINA RESULT:      -2.9      4.669      5.776
REMARK  2 active torsions:
REMARK  status: ('A' for Active; 'I' for Inactive)
REMARK    1  A    between atoms: C_2  and  O_1 
REMARK    2  A    between atoms: C_3  and  C_2 
ROOT
ATOM      1  C   UNL d   1      26.325  13.309  21.944  0.00  0.00     0.213 C 
ATOM      2  O   UNL d   1      26.626  12.204  21.546  0.00  0.00    -0.644 OA
ENDROOT
BRANCH   1   3
ATOM      3  C   UNL d   1      27.348  14.400  22.245  0.00  0.00     0.218 C 
ATOM      4  C   UNL d   1      28.211  14.850  21.108  0.00  0.00     0.103 C 
ATOM      5  O   UNL d   1      27.398  14.834  23.392  0.00  0.00    -0.286 OA
ENDBRANCH   1   3
BRANCH   1   6
ATOM      6  O   UNL d   1      25.077  13.755  22.183  0.00  0.00    -0.771 OA
ATOM      7  H   UNL d   1      24.527  13.008  22.520  0.00  0.00     0.168 HD
ENDBRANCH   1   6
TORSDOF 2
ENDMDL
MODEL 8
REMARK VINA RESULT:      -2.8     25.175     25.764
REMARK  2 active torsions:
REMARK  status: ('A' for Active; 'I' for Inactive)
REMARK    1  A    between atoms: C_2  and  O_1 
REMARK    2  A    between atoms: C_3  and  C_2 
ROOT
ATOM      1  C   UNL d   1      23.119  37.663  30.093  0.00  0.00     0.213 C 
ATOM      2  O   UNL d   1      24.308  37.888  30.182  0.00  0.00    -0.644 OA
ENDROOT
BRANCH   1   3
ATOM      3  C   UNL d   1      22.214  37.447  31.301  0.00  0.00     0.218 C 
ATOM      4  C   UNL d   1      22.239  36.090  31.931  0.00  0.00     0.103 C 
ATOM      5  O   UNL d   1      21.526  38.393  31.674  0.00  0.00    -0.286 OA
ENDBRANCH   1   3
BRANCH   1   6
ATOM      6  O   UNL d   1      22.413  37.567  28.950  0.00  0.00    -0.771 OA
ATOM      7  H   UNL d   1      21.552  37.121  29.139  0.00  0.00     0.168 HD
ENDBRANCH   1   6
TORSDOF 2
ENDMDL
MODEL 9
REMARK VINA RESULT:      -2.7     17.435     17.953
REMARK  2 active torsions:
REMARK  status: ('A' for Active; 'I' for Inactive)
REMARK    1  A    between atoms: C_2  and  O_1 
REMARK    2  A    between atoms: C_3  and  C_2 
ROOT
ATOM      1  C   UNL d   1      16.050   7.209  35.397  0.00  0.00     0.213 C 
ATOM      2  O   UNL d   1      17.174   6.792  35.581  0.00  0.00    -0.644 OA
ENDROOT
BRANCH   1   3
ATOM      3  C   UNL d   1      15.174   6.772  34.228  0.00  0.00     0.218 C 
ATOM      4  C   UNL d   1      13.896   6.071  34.565  0.00  0.00     0.103 C 
ATOM      5  O   UNL d   1      15.572   7.021  33.093  0.00  0.00    -0.286 OA
ENDBRANCH   1   3
BRANCH   1   6
ATOM      6  O   UNL d   1      15.398   8.101  36.167  0.00  0.00    -0.771 OA
ATOM      7  H   UNL d   1      15.808   8.112  37.065  0.00  0.00     0.168 HD
ENDBRANCH   1   6
TORSDOF 2
ENDMDL
