MODEL 1
REMARK VINA RESULT:      -1.5      0.000      0.000
REMARK  0 active torsions:
REMARK  status: ('A' for Active; 'I' for Inactive)
ROOT
ATOM      1  N   UNL d   1      17.206  10.306  17.715  0.00  0.00    -0.084 N 
ATOM      2  H   UNL d   1      16.674  10.212  16.842  0.00  0.00     0.271 HD
ATOM      3  H   UNL d   1      18.136   9.885  17.597  0.00  0.00     0.271 HD
ATOM      4  H   UNL d   1      16.708   9.826  18.473  0.00  0.00     0.271 HD
ATOM      5  H   UNL d   1      17.309  11.301  17.949  0.00  0.00     0.271 HD
ENDROOT
TORSDOF 0
ENDMDL
MODEL 2
REMARK VINA RESULT:      -1.2     18.756     18.756
REMARK  0 active torsions:
REMARK  status: ('A' for Active; 'I' for Inactive)
ROOT
ATOM      1  N   UNL d   1      14.142  -5.479  27.373  0.00  0.00    -0.084 N 
ATOM      2  H   UNL d   1      13.554  -4.769  27.826  0.00  0.00     0.271 HD
ATOM      3  H   UNL d   1      14.359  -5.182  26.414  0.00  0.00     0.271 HD
ATOM      4  H   UNL d   1      13.642  -6.374  27.349  0.00  0.00     0.271 HD
ATOM      5  H   UNL d   1      15.015  -5.588  27.902  0.00  0.00     0.271 HD
ENDROOT
TORSDOF 0
ENDMDL
MODEL 3
REMARK VINA RESULT:      -1.2     18.313     18.313
REMARK  0 active torsions:
REMARK  status: ('A' for Active; 'I' for Inactive)
ROOT
ATOM      1  N   UNL d   1       7.025  18.331   4.781  0.00  0.00    -0.084 N 
ATOM      2  H   UNL d   1       7.002  17.443   5.296  0.00  0.00     0.271 HD
ATOM      3  H   UNL d   1       7.806  18.904   5.123  0.00  0.00     0.271 HD
ATOM      4  H   UNL d   1       6.142  18.833   4.925  0.00  0.00     0.271 HD
ATOM      5  H   UNL d   1       7.153  18.142   3.779  0.00  0.00     0.271 HD
ENDROOT
TORSDOF 0
ENDMDL
MODEL 4
REMARK VINA RESULT:      -1.1     31.587     31.587
REMARK  0 active torsions:
REMARK  status: ('A' for Active; 'I' for Inactive)
ROOT
ATOM      1  N   UNL d   1       5.188 -18.784  15.053  0.00  0.00    -0.084 N 
ATOM      2  H   UNL d   1       4.941 -17.979  14.465  0.00  0.00     0.271 HD
ATOM      3  H   UNL d   1       4.334 -19.285  15.324  0.00  0.00     0.271 HD
ATOM      4  H   UNL d   1       5.674 -18.456  15.896  0.00  0.00     0.271 HD
ATOM      5  H   UNL d   1       5.803 -19.415  14.527  0.00  0.00     0.271 HD
ENDROOT
TORSDOF 0
ENDMDL
MODEL 5
REMARK VINA RESULT:      -1.1     34.403     34.403
REMARK  0 active torsions:
REMARK  status: ('A' for Active; 'I' for Inactive)
ROOT
ATOM      1  N   UNL d   1      19.437 -18.310  36.681  0.00  0.00    -0.084 N 
ATOM      2  H   UNL d   1      18.905 -18.403  35.808  0.00  0.00     0.271 HD
ATOM      3  H   UNL d   1      20.366 -18.730  36.563  0.00  0.00     0.271 HD
ATOM      4  H   UNL d   1      18.938 -18.789  37.439  0.00  0.00     0.271 HD
ATOM      5  H   UNL d   1      19.540 -17.315  36.915  0.00  0.00     0.271 HD
ENDROOT
TORSDOF 0
ENDMDL
MODEL 6
REMARK VINA RESULT:      -1.1     29.236     29.236
REMARK  0 active torsions:
REMARK  status: ('A' for Active; 'I' for Inactive)
ROOT
ATOM      1  N   UNL d   1      -2.057  -9.187  27.897  0.00  0.00    -0.084 N 
ATOM      2  H   UNL d   1      -2.646  -8.478  28.350  0.00  0.00     0.271 HD
ATOM      3  H   UNL d   1      -1.841  -8.890  26.939  0.00  0.00     0.271 HD
ATOM      4  H   UNL d   1      -2.558 -10.083  27.874  0.00  0.00     0.271 HD
ATOM      5  H   UNL d   1      -1.184  -9.296  28.427  0.00  0.00     0.271 HD
ENDROOT
TORSDOF 0
ENDMDL
MODEL 7
REMARK VINA RESULT:      -1.0      9.805      9.805
REMARK  0 active torsions:
REMARK  status: ('A' for Active; 'I' for Inactive)
ROOT
ATOM      1  N   UNL d   1      19.146   0.888  19.637  0.00  0.00    -0.084 N 
ATOM      2  H   UNL d   1      19.302   0.403  20.529  0.00  0.00     0.271 HD
ATOM      3  H   UNL d   1      19.938   0.711  19.008  0.00  0.00     0.271 HD
ATOM      4  H   UNL d   1      19.063   1.897  19.807  0.00  0.00     0.271 HD
ATOM      5  H   UNL d   1      18.282   0.541  19.205  0.00  0.00     0.271 HD
ENDROOT
TORSDOF 0
ENDMDL
MODEL 8
REMARK VINA RESULT:      -1.0     28.913     28.913
REMARK  0 active torsions:
REMARK  status: ('A' for Active; 'I' for Inactive)
ROOT
ATOM      1  N   UNL d   1      19.209 -17.653  24.806  0.00  0.00    -0.084 N 
ATOM      2  H   UNL d   1      19.186 -18.541  25.321  0.00  0.00     0.271 HD
ATOM      3  H   UNL d   1      19.990 -17.080  25.148  0.00  0.00     0.271 HD
ATOM      4  H   UNL d   1      18.326 -17.150  24.950  0.00  0.00     0.271 HD
ATOM      5  H   UNL d   1      19.337 -17.842  23.804  0.00  0.00     0.271 HD
ENDROOT
TORSDOF 0
ENDMDL
MODEL 9
REMARK VINA RESULT:      -1.0      1.433      1.433
REMARK  0 active torsions:
REMARK  status: ('A' for Active; 'I' for Inactive)
ROOT
ATOM      1  N   UNL d   1      16.718   9.621  18.876  0.00  0.00    -0.084 N 
ATOM      2  H   UNL d   1      16.389   9.353  19.811  0.00  0.00     0.271 HD
ATOM      3  H   UNL d   1      17.126   8.803  18.408  0.00  0.00     0.271 HD
ATOM      4  H   UNL d   1      17.429  10.357  18.961  0.00  0.00     0.271 HD
ATOM      5  H   UNL d   1      15.927   9.972  18.323  0.00  0.00     0.271 HD
ENDROOT
TORSDOF 0
ENDMDL
