MODEL 1
REMARK VINA RESULT:      -0.8      0.000      0.000
REMARK  0 active torsions:
REMARK  status: ('A' for Active; 'I' for Inactive)
ROOT
ATOM      1 SE   UNL d   1      21.001  36.887  23.871  0.00  0.00     0.000 Se
ATOM      2  H   UNL d   1      21.277  35.409  23.549  0.00  0.00     0.000 HD
ATOM      3  H   UNL d   1      20.051  36.987  22.668  0.00  0.00     0.000 HD
ENDROOT
TORSDOF 0
ENDMDL
MODEL 2
REMARK VINA RESULT:      -0.7     34.306     34.306
REMARK  0 active torsions:
REMARK  status: ('A' for Active; 'I' for Inactive)
ROOT
ATOM      1 SE   UNL d   1     -10.441  33.599  37.191  0.00  0.00     0.000 Se
ATOM      2  H   UNL d   1     -10.735  33.030  35.794  0.00  0.00     0.000 HD
ATOM      3  H   UNL d   1      -9.931  32.228  37.660  0.00  0.00     0.000 HD
ENDROOT
TORSDOF 0
ENDMDL
MODEL 3
REMARK VINA RESULT:      -0.7     16.889     16.889
REMARK  0 active torsions:
REMARK  status: ('A' for Active; 'I' for Inactive)
ROOT
ATOM      1 SE   UNL d   1       8.258  36.433  12.796  0.00  0.00     0.000 Se
ATOM      2  H   UNL d   1       9.223  37.127  11.822  0.00  0.00     0.000 HD
ATOM      3  H   UNL d   1       9.424  36.112  13.746  0.00  0.00     0.000 HD
ENDROOT
TORSDOF 0
ENDMDL
MODEL 4
REMARK VINA RESULT:      -0.6      7.004      7.004
REMARK  0 active torsions:
REMARK  status: ('A' for Active; 'I' for Inactive)
ROOT
ATOM      1 SE   UNL d   1      24.347  32.018  20.109  0.00  0.00     0.000 Se
ATOM      2  H   UNL d   1      24.233  30.686  20.867  0.00  0.00     0.000 HD
ATOM      3  H   UNL d   1      24.873  31.283  18.865  0.00  0.00     0.000 HD
ENDROOT
TORSDOF 0
ENDMDL
MODEL 5
REMARK VINA RESULT:      -0.6     21.082     21.082
REMARK  0 active torsions:
REMARK  status: ('A' for Active; 'I' for Inactive)
ROOT
ATOM      1 SE   UNL d   1       3.889  24.573  23.896  0.00  0.00     0.000 Se
ATOM      2  H   UNL d   1       3.595  24.004  22.499  0.00  0.00     0.000 HD
ATOM      3  H   UNL d   1       4.399  23.201  24.365  0.00  0.00     0.000 HD
ENDROOT
TORSDOF 0
ENDMDL
MODEL 6
REMARK VINA RESULT:      -0.6     10.447     10.447
REMARK  0 active torsions:
REMARK  status: ('A' for Active; 'I' for Inactive)
ROOT
ATOM      1 SE   UNL d   1      21.004  27.111  20.187  0.00  0.00     0.000 Se
ATOM      2  H   UNL d   1      20.890  25.779  20.945  0.00  0.00     0.000 HD
ATOM      3  H   UNL d   1      21.530  26.376  18.944  0.00  0.00     0.000 HD
ENDROOT
TORSDOF 0
ENDMDL
MODEL 7
REMARK VINA RESULT:      -0.5     18.971     18.971
REMARK  0 active torsions:
REMARK  status: ('A' for Active; 'I' for Inactive)
ROOT
ATOM      1 SE   UNL d   1      16.077  18.668  21.939  0.00  0.00     0.000 Se
ATOM      2  H   UNL d   1      15.962  17.336  22.698  0.00  0.00     0.000 HD
ATOM      3  H   UNL d   1      16.602  17.933  20.696  0.00  0.00     0.000 HD
ENDROOT
TORSDOF 0
ENDMDL
MODEL 8
REMARK VINA RESULT:      -0.5     24.296     24.296
REMARK  0 active torsions:
REMARK  status: ('A' for Active; 'I' for Inactive)
ROOT
ATOM      1 SE   UNL d   1      -0.359  25.340  23.016  0.00  0.00     0.000 Se
ATOM      2  H   UNL d   1       0.320  25.304  21.637  0.00  0.00     0.000 HD
ATOM      3  H   UNL d   1       1.007  25.208  23.709  0.00  0.00     0.000 HD
ENDROOT
TORSDOF 0
ENDMDL
MODEL 9
REMARK VINA RESULT:      -0.5     22.583     22.583
REMARK  0 active torsions:
REMARK  status: ('A' for Active; 'I' for Inactive)
ROOT
ATOM      1 SE   UNL d   1       2.069  24.917  20.991  0.00  0.00     0.000 Se
ATOM      2  H   UNL d   1       2.748  24.882  19.613  0.00  0.00     0.000 HD
ATOM      3  H   UNL d   1       3.434  24.786  21.684  0.00  0.00     0.000 HD
ENDROOT
TORSDOF 0
ENDMDL
