MODEL 1
REMARK VINA RESULT:      -6.3      0.000      0.000
REMARK  5 active torsions:
REMARK  status: ('A' for Active; 'I' for Inactive)
REMARK    1  A    between atoms: C_12  and  C_10 
REMARK    2  A    between atoms: C_10  and  C_13 
REMARK    3  A    between atoms: C_14  and  C_12 
REMARK    4  A    between atoms: C_17  and  C_14 
REMARK    5  A    between atoms: N_20  and  C_17 
ROOT
ATOM      1  N   UNL d   1      -2.488  16.931 -12.330  0.00  0.00    -0.191 NA
ATOM      2  C   UNL d   1      -2.909  16.722 -13.395  0.00  0.00     0.099 C 
ATOM      3  C   UNL d   1      -3.422  16.463 -14.707  0.00  0.00     0.045 A 
ATOM      4  C   UNL d   1      -3.153  17.362 -15.756  0.00  0.00     0.023 A 
ATOM      5  C   UNL d   1      -4.178  15.313 -14.951  0.00  0.00     0.032 A 
ATOM      6  C   UNL d   1      -3.641  17.121 -17.046  0.00  0.00     0.012 A 
ATOM      7  C   UNL d   1      -4.656  15.094 -16.238  0.00  0.00    -0.023 A 
ATOM      8  C   UNL d   1      -4.405  15.984 -17.275  0.00  0.00    -0.011 A 
ATOM      9  C   UNL d   1      -5.443  13.945 -16.739  0.00  0.00     0.209 A 
ATOM     10  C   UNL d   1      -5.021  15.461 -18.547  0.00  0.00     0.116 A 
ATOM     11  O   UNL d   1      -5.606  14.181 -18.152  0.00  0.00    -0.366 OA
ENDROOT
BRANCH  10  12
ATOM     12  C   UNL d   1      -3.991  15.148 -19.661  0.00  0.00     0.050 C 
BRANCH  12  13
ATOM     13  C   UNL d   1      -3.578  13.676 -19.791  0.00  0.00     0.034 C 
BRANCH  13  14
ATOM     14  C   UNL d   1      -3.726  13.225 -21.253  0.00  0.00     0.271 C 
BRANCH  14  15
ATOM     15  N   UNL d   1      -4.226  11.849 -21.400  0.00  0.00     0.080 N 
ATOM     16  C   UNL d   1      -4.779  11.330 -20.148  0.00  0.00     0.309 C 
ATOM     17  C   UNL d   1      -5.258  11.806 -22.443  0.00  0.00     0.309 C 
ENDBRANCH  14  15
ENDBRANCH  13  14
ENDBRANCH  12  13
ENDBRANCH  10  12
BRANCH  10  18
ATOM     18  C   UNL d   1      -6.128  16.366 -19.123  0.00  0.00    -0.019 A 
ATOM     19  C   UNL d   1      -7.491  16.099 -18.885  0.00  0.00     0.013 A 
ATOM     20  C   UNL d   1      -8.495  16.882 -19.462  0.00  0.00     0.043 A 
ATOM     21  C   UNL d   1      -8.152  17.945 -20.284  0.00  0.00     0.116 A 
ATOM     22  F   UNL d   1      -9.115  18.688 -20.845  0.00  0.00    -0.206 F 
ATOM     23  C   UNL d   1      -6.821  18.242 -20.539  0.00  0.00     0.043 A 
ATOM     24  C   UNL d   1      -5.816  17.459 -19.963  0.00  0.00     0.013 A 
ENDBRANCH  10  18
TORSDOF 5
ENDMDL
MODEL 2
REMARK VINA RESULT:      -5.7     13.691     14.793
REMARK  5 active torsions:
REMARK  status: ('A' for Active; 'I' for Inactive)
REMARK    1  A    between atoms: C_12  and  C_10 
REMARK    2  A    between atoms: C_10  and  C_13 
REMARK    3  A    between atoms: C_14  and  C_12 
REMARK    4  A    between atoms: C_17  and  C_14 
REMARK    5  A    between atoms: N_20  and  C_17 
ROOT
ATOM      1  N   UNL d   1      -8.710   3.928  -6.218  0.00  0.00    -0.191 NA
ATOM      2  C   UNL d   1      -9.168   3.882  -7.287  0.00  0.00     0.099 C 
ATOM      3  C   UNL d   1      -9.727   3.826  -8.604  0.00  0.00     0.045 A 
ATOM      4  C   UNL d   1      -9.542   4.902  -9.493  0.00  0.00     0.023 A 
ATOM      5  C   UNL d   1     -10.446   2.699  -9.014  0.00  0.00     0.032 A 
ATOM      6  C   UNL d   1     -10.077   4.859 -10.786  0.00  0.00     0.012 A 
ATOM      7  C   UNL d   1     -10.971   2.678 -10.301  0.00  0.00    -0.023 A 
ATOM      8  C   UNL d   1     -10.803   3.742 -11.179  0.00  0.00    -0.011 A 
ATOM      9  C   UNL d   1     -11.731   1.595 -10.962  0.00  0.00     0.209 A 
ATOM     10  C   UNL d   1     -11.453   3.413 -12.499  0.00  0.00     0.116 A 
ATOM     11  O   UNL d   1     -11.967   2.059 -12.307  0.00  0.00    -0.366 OA
ENDROOT
BRANCH  10  12
ATOM     12  C   UNL d   1     -10.461   3.344 -13.687  0.00  0.00     0.050 C 
BRANCH  12  13
ATOM     13  C   UNL d   1      -9.796   1.981 -13.918  0.00  0.00     0.034 C 
BRANCH  13  14
ATOM     14  C   UNL d   1      -8.297   2.075 -13.589  0.00  0.00     0.271 C 
BRANCH  14  15
ATOM     15  N   UNL d   1      -7.434   1.384 -14.560  0.00  0.00     0.080 N 
ATOM     16  C   UNL d   1      -8.182   0.422 -15.371  0.00  0.00     0.309 C 
ATOM     17  C   UNL d   1      -6.792   2.368 -15.440  0.00  0.00     0.309 C 
ENDBRANCH  14  15
ENDBRANCH  13  14
ENDBRANCH  12  13
ENDBRANCH  10  12
BRANCH  10  18
ATOM     18  C   UNL d   1     -12.621   4.349 -12.870  0.00  0.00    -0.019 A 
ATOM     19  C   UNL d   1     -12.639   5.047 -14.093  0.00  0.00     0.013 A 
ATOM     20  C   UNL d   1     -13.665   5.946 -14.400  0.00  0.00     0.043 A 
ATOM     21  C   UNL d   1     -14.689   6.159 -13.489  0.00  0.00     0.116 A 
ATOM     22  F   UNL d   1     -15.666   7.027 -13.780  0.00  0.00    -0.206 F 
ATOM     23  C   UNL d   1     -14.708   5.487 -12.276  0.00  0.00     0.043 A 
ATOM     24  C   UNL d   1     -13.681   4.589 -11.968  0.00  0.00     0.013 A 
ENDBRANCH  10  18
TORSDOF 5
ENDMDL
MODEL 3
REMARK VINA RESULT:      -5.2      2.581      4.703
REMARK  5 active torsions:
REMARK  status: ('A' for Active; 'I' for Inactive)
REMARK    1  A    between atoms: C_12  and  C_10 
REMARK    2  A    between atoms: C_10  and  C_13 
REMARK    3  A    between atoms: C_14  and  C_12 
REMARK    4  A    between atoms: C_17  and  C_14 
REMARK    5  A    between atoms: N_20  and  C_17 
ROOT
ATOM      1  N   UNL d   1      -3.766  10.576 -15.711  0.00  0.00    -0.191 NA
ATOM      2  C   UNL d   1      -3.990  11.564 -16.284  0.00  0.00     0.099 C 
ATOM      3  C   UNL d   1      -4.261  12.782 -16.987  0.00  0.00     0.045 A 
ATOM      4  C   UNL d   1      -4.860  13.863 -16.314  0.00  0.00     0.023 A 
ATOM      5  C   UNL d   1      -3.921  12.904 -18.338  0.00  0.00     0.032 A 
ATOM      6  C   UNL d   1      -5.126  15.063 -16.985  0.00  0.00     0.012 A 
ATOM      7  C   UNL d   1      -4.195  14.102 -18.986  0.00  0.00    -0.023 A 
ATOM      8  C   UNL d   1      -4.799  15.169 -18.330  0.00  0.00    -0.011 A 
ATOM      9  C   UNL d   1      -3.901  14.473 -20.387  0.00  0.00     0.209 A 
ATOM     10  C   UNL d   1      -4.936  16.331 -19.281  0.00  0.00     0.116 A 
ATOM     11  O   UNL d   1      -4.323  15.846 -20.516  0.00  0.00    -0.366 OA
ENDROOT
BRANCH  10  12
ATOM     12  C   UNL d   1      -4.135  17.587 -18.857  0.00  0.00     0.050 C 
BRANCH  12  13
ATOM     13  C   UNL d   1      -2.694  17.333 -18.396  0.00  0.00     0.034 C 
BRANCH  13  14
ATOM     14  C   UNL d   1      -1.783  18.464 -18.900  0.00  0.00     0.271 C 
BRANCH  14  15
ATOM     15  N   UNL d   1      -0.570  18.652 -18.089  0.00  0.00     0.080 N 
ATOM     16  C   UNL d   1      -0.498  19.998 -17.515  0.00  0.00     0.309 C 
ATOM     17  C   UNL d   1      -0.538  17.660 -17.008  0.00  0.00     0.309 C 
ENDBRANCH  14  15
ENDBRANCH  13  14
ENDBRANCH  12  13
ENDBRANCH  10  12
BRANCH  10  18
ATOM     18  C   UNL d   1      -6.396  16.736 -19.566  0.00  0.00    -0.019 A 
ATOM     19  C   UNL d   1      -6.705  17.918 -20.267  0.00  0.00     0.013 A 
ATOM     20  C   UNL d   1      -8.030  18.318 -20.467  0.00  0.00     0.043 A 
ATOM     21  C   UNL d   1      -9.066  17.539 -19.971  0.00  0.00     0.116 A 
ATOM     22  F   UNL d   1     -10.334  17.928 -20.155  0.00  0.00    -0.206 F 
ATOM     23  C   UNL d   1      -8.801  16.366 -19.280  0.00  0.00     0.043 A 
ATOM     24  C   UNL d   1      -7.476  15.967 -19.079  0.00  0.00     0.013 A 
ENDBRANCH  10  18
TORSDOF 5
ENDMDL
MODEL 4
REMARK VINA RESULT:      -4.9     14.082     15.717
REMARK  5 active torsions:
REMARK  status: ('A' for Active; 'I' for Inactive)
REMARK    1  A    between atoms: C_12  and  C_10 
REMARK    2  A    between atoms: C_10  and  C_13 
REMARK    3  A    between atoms: C_14  and  C_12 
REMARK    4  A    between atoms: C_17  and  C_14 
REMARK    5  A    between atoms: N_20  and  C_17 
ROOT
ATOM      1  N   UNL d   1      -6.502   4.320  -7.352  0.00  0.00    -0.191 NA
ATOM      2  C   UNL d   1      -7.340   4.065  -8.118  0.00  0.00     0.099 C 
ATOM      3  C   UNL d   1      -8.369   3.748  -9.062  0.00  0.00     0.045 A 
ATOM      4  C   UNL d   1      -8.212   4.098 -10.416  0.00  0.00     0.023 A 
ATOM      5  C   UNL d   1      -9.524   3.080  -8.645  0.00  0.00     0.032 A 
ATOM      6  C   UNL d   1      -9.205   3.788 -11.354  0.00  0.00     0.012 A 
ATOM      7  C   UNL d   1     -10.499   2.785  -9.590  0.00  0.00    -0.023 A 
ATOM      8  C   UNL d   1     -10.355   3.139 -10.926  0.00  0.00    -0.011 A 
ATOM      9  C   UNL d   1     -11.776   2.065  -9.394  0.00  0.00     0.209 A 
ATOM     10  C   UNL d   1     -11.554   2.659 -11.705  0.00  0.00     0.116 A 
ATOM     11  O   UNL d   1     -12.367   1.969 -10.706  0.00  0.00    -0.366 OA
ENDROOT
BRANCH  10  12
ATOM     12  C   UNL d   1     -11.215   1.612 -12.796  0.00  0.00     0.050 C 
BRANCH  12  13
ATOM     13  C   UNL d   1     -11.498   0.151 -12.425  0.00  0.00     0.034 C 
BRANCH  13  14
ATOM     14  C   UNL d   1     -10.187  -0.652 -12.451  0.00  0.00     0.271 C 
BRANCH  14  15
ATOM     15  N   UNL d   1     -10.287  -1.925 -13.181  0.00  0.00     0.080 N 
ATOM     16  C   UNL d   1     -10.916  -2.972 -12.375  0.00  0.00     0.309 C 
ATOM     17  C   UNL d   1     -11.059  -1.729 -14.413  0.00  0.00     0.309 C 
ENDBRANCH  14  15
ENDBRANCH  13  14
ENDBRANCH  12  13
ENDBRANCH  10  12
BRANCH  10  18
ATOM     18  C   UNL d   1     -12.384   3.795 -12.336  0.00  0.00    -0.019 A 
ATOM     19  C   UNL d   1     -13.568   4.259 -11.730  0.00  0.00     0.013 A 
ATOM     20  C   UNL d   1     -14.355   5.243 -12.337  0.00  0.00     0.043 A 
ATOM     21  C   UNL d   1     -13.969   5.778 -13.557  0.00  0.00     0.116 A 
ATOM     22  F   UNL d   1     -14.729   6.713 -14.141  0.00  0.00    -0.206 F 
ATOM     23  C   UNL d   1     -12.807   5.349 -14.182  0.00  0.00     0.043 A 
ATOM     24  C   UNL d   1     -12.021   4.365 -13.576  0.00  0.00     0.013 A 
ENDBRANCH  10  18
TORSDOF 5
ENDMDL
MODEL 5
REMARK VINA RESULT:      -4.9      3.881      6.603
REMARK  5 active torsions:
REMARK  status: ('A' for Active; 'I' for Inactive)
REMARK    1  A    between atoms: C_12  and  C_10 
REMARK    2  A    between atoms: C_10  and  C_13 
REMARK    3  A    between atoms: C_14  and  C_12 
REMARK    4  A    between atoms: C_17  and  C_14 
REMARK    5  A    between atoms: N_20  and  C_17 
ROOT
ATOM      1  N   UNL d   1      -0.551   9.240 -22.958  0.00  0.00    -0.191 NA
ATOM      2  C   UNL d   1      -1.115   9.688 -22.045  0.00  0.00     0.099 C 
ATOM      3  C   UNL d   1      -1.809  10.236 -20.917  0.00  0.00     0.045 A 
ATOM      4  C   UNL d   1      -3.096   9.770 -20.591  0.00  0.00     0.023 A 
ATOM      5  C   UNL d   1      -1.206  11.223 -20.133  0.00  0.00     0.032 A 
ATOM      6  C   UNL d   1      -3.785  10.290 -19.488  0.00  0.00     0.012 A 
ATOM      7  C   UNL d   1      -1.907  11.728 -19.045  0.00  0.00    -0.023 A 
ATOM      8  C   UNL d   1      -3.184  11.281 -18.724  0.00  0.00    -0.011 A 
ATOM      9  C   UNL d   1      -1.467  12.743 -18.062  0.00  0.00     0.209 A 
ATOM     10  C   UNL d   1      -3.667  11.988 -17.484  0.00  0.00     0.116 A 
ATOM     11  O   UNL d   1      -2.542  12.840 -17.106  0.00  0.00    -0.366 OA
ENDROOT
BRANCH  10  12
ATOM     12  C   UNL d   1      -3.925  11.043 -16.283  0.00  0.00     0.050 C 
BRANCH  12  13
ATOM     13  C   UNL d   1      -2.882  11.096 -15.160  0.00  0.00     0.034 C 
BRANCH  13  14
ATOM     14  C   UNL d   1      -1.775  10.065 -15.434  0.00  0.00     0.271 C 
BRANCH  14  15
ATOM     15  N   UNL d   1      -2.257   8.838 -16.088  0.00  0.00     0.080 N 
ATOM     16  C   UNL d   1      -1.417   8.457 -17.225  0.00  0.00     0.309 C 
ATOM     17  C   UNL d   1      -2.289   7.740 -15.115  0.00  0.00     0.309 C 
ENDBRANCH  14  15
ENDBRANCH  13  14
ENDBRANCH  12  13
ENDBRANCH  10  12
BRANCH  10  18
ATOM     18  C   UNL d   1      -4.914  12.867 -17.711  0.00  0.00    -0.019 A 
ATOM     19  C   UNL d   1      -5.795  13.174 -16.656  0.00  0.00     0.013 A 
ATOM     20  C   UNL d   1      -6.960  13.915 -16.877  0.00  0.00     0.043 A 
ATOM     21  C   UNL d   1      -7.259  14.362 -18.155  0.00  0.00     0.116 A 
ATOM     22  F   UNL d   1      -8.380  15.064 -18.368  0.00  0.00    -0.206 F 
ATOM     23  C   UNL d   1      -6.413  14.083 -19.219  0.00  0.00     0.043 A 
ATOM     24  C   UNL d   1      -5.249  13.340 -18.999  0.00  0.00     0.013 A 
ENDBRANCH  10  18
TORSDOF 5
ENDMDL
MODEL 6
REMARK VINA RESULT:      -4.8     32.664     34.955
REMARK  5 active torsions:
REMARK  status: ('A' for Active; 'I' for Inactive)
REMARK    1  A    between atoms: C_12  and  C_10 
REMARK    2  A    between atoms: C_10  and  C_13 
REMARK    3  A    between atoms: C_14  and  C_12 
REMARK    4  A    between atoms: C_17  and  C_14 
REMARK    5  A    between atoms: N_20  and  C_17 
ROOT
ATOM      1  N   UNL d   1     -33.300  27.920 -26.960  0.00  0.00    -0.191 NA
ATOM      2  C   UNL d   1     -33.472  27.782 -28.102  0.00  0.00     0.099 C 
ATOM      3  C   UNL d   1     -33.684  27.618 -29.509  0.00  0.00     0.045 A 
ATOM      4  C   UNL d   1     -34.920  27.976 -30.080  0.00  0.00     0.023 A 
ATOM      5  C   UNL d   1     -32.662  27.114 -30.319  0.00  0.00     0.032 A 
ATOM      6  C   UNL d   1     -35.141  27.828 -31.455  0.00  0.00     0.012 A 
ATOM      7  C   UNL d   1     -32.903  26.972 -31.680  0.00  0.00    -0.023 A 
ATOM      8  C   UNL d   1     -34.125  27.312 -32.248  0.00  0.00    -0.011 A 
ATOM      9  C   UNL d   1     -31.975  26.496 -32.730  0.00  0.00     0.209 A 
ATOM     10  C   UNL d   1     -34.071  27.078 -33.737  0.00  0.00     0.116 A 
ATOM     11  O   UNL d   1     -32.703  26.617 -33.968  0.00  0.00    -0.366 OA
ENDROOT
BRANCH  10  12
ATOM     12  C   UNL d   1     -34.250  28.364 -34.581  0.00  0.00     0.050 C 
BRANCH  12  13
ATOM     13  C   UNL d   1     -33.256  29.495 -34.288  0.00  0.00     0.034 C 
BRANCH  13  14
ATOM     14  C   UNL d   1     -33.964  30.615 -33.507  0.00  0.00     0.271 C 
BRANCH  14  15
ATOM     15  N   UNL d   1     -33.052  31.437 -32.695  0.00  0.00     0.080 N 
ATOM     16  C   UNL d   1     -33.388  32.860 -32.765  0.00  0.00     0.309 C 
ATOM     17  C   UNL d   1     -33.098  30.993 -31.297  0.00  0.00     0.309 C 
ENDBRANCH  14  15
ENDBRANCH  13  14
ENDBRANCH  12  13
ENDBRANCH  10  12
BRANCH  10  18
ATOM     18  C   UNL d   1     -35.058  26.004 -34.237  0.00  0.00    -0.019 A 
ATOM     19  C   UNL d   1     -34.784  24.630 -34.085  0.00  0.00     0.013 A 
ATOM     20  C   UNL d   1     -35.648  23.658 -34.597  0.00  0.00     0.043 A 
ATOM     21  C   UNL d   1     -36.799  24.044 -35.268  0.00  0.00     0.116 A 
ATOM     22  F   UNL d   1     -37.621  23.112 -35.767  0.00  0.00    -0.206 F 
ATOM     23  C   UNL d   1     -37.105  25.387 -35.434  0.00  0.00     0.043 A 
ATOM     24  C   UNL d   1     -36.240  26.360 -34.922  0.00  0.00     0.013 A 
ENDBRANCH  10  18
TORSDOF 5
ENDMDL
MODEL 7
REMARK VINA RESULT:      -4.7      2.181      2.975
REMARK  5 active torsions:
REMARK  status: ('A' for Active; 'I' for Inactive)
REMARK    1  A    between atoms: C_12  and  C_10 
REMARK    2  A    between atoms: C_10  and  C_13 
REMARK    3  A    between atoms: C_14  and  C_12 
REMARK    4  A    between atoms: C_17  and  C_14 
REMARK    5  A    between atoms: N_20  and  C_17 
ROOT
ATOM      1  N   UNL d   1      -1.077  17.081 -14.104  0.00  0.00    -0.191 NA
ATOM      2  C   UNL d   1      -1.710  16.954 -15.072  0.00  0.00     0.099 C 
ATOM      3  C   UNL d   1      -2.486  16.799 -16.266  0.00  0.00     0.045 A 
ATOM      4  C   UNL d   1      -2.813  17.926 -17.043  0.00  0.00     0.023 A 
ATOM      5  C   UNL d   1      -2.908  15.529 -16.669  0.00  0.00     0.032 A 
ATOM      6  C   UNL d   1      -3.564  17.791 -18.217  0.00  0.00     0.012 A 
ATOM      7  C   UNL d   1      -3.655  15.416 -17.835  0.00  0.00    -0.023 A 
ATOM      8  C   UNL d   1      -3.992  16.527 -18.600  0.00  0.00    -0.011 A 
ATOM      9  C   UNL d   1      -4.180  14.188 -18.471  0.00  0.00     0.209 A 
ATOM     10  C   UNL d   1      -4.773  16.085 -19.812  0.00  0.00     0.116 A 
ATOM     11  O   UNL d   1      -4.813  14.629 -19.690  0.00  0.00    -0.366 OA
ENDROOT
BRANCH  10  12
ATOM     12  C   UNL d   1      -4.070  16.394 -21.158  0.00  0.00     0.050 C 
BRANCH  12  13
ATOM     13  C   UNL d   1      -3.291  15.230 -21.784  0.00  0.00     0.034 C 
BRANCH  13  14
ATOM     14  C   UNL d   1      -1.817  15.632 -21.961  0.00  0.00     0.271 C 
BRANCH  14  15
ATOM     15  N   UNL d   1      -1.356  16.632 -20.987  0.00  0.00     0.080 N 
ATOM     16  C   UNL d   1      -0.544  16.032 -19.926  0.00  0.00     0.309 C 
ATOM     17  C   UNL d   1      -0.573  17.667 -21.673  0.00  0.00     0.309 C 
ENDBRANCH  14  15
ENDBRANCH  13  14
ENDBRANCH  12  13
ENDBRANCH  10  12
BRANCH  10  18
ATOM     18  C   UNL d   1      -6.215  16.628 -19.859  0.00  0.00    -0.019 A 
ATOM     19  C   UNL d   1      -6.524  17.828 -20.528  0.00  0.00     0.013 A 
ATOM     20  C   UNL d   1      -7.819  18.354 -20.514  0.00  0.00     0.043 A 
ATOM     21  C   UNL d   1      -8.826  17.686 -19.831  0.00  0.00     0.116 A 
ATOM     22  F   UNL d   1     -10.063  18.196 -19.809  0.00  0.00    -0.206 F 
ATOM     23  C   UNL d   1      -8.561  16.500 -19.163  0.00  0.00     0.043 A 
ATOM     24  C   UNL d   1      -7.265  15.974 -19.176  0.00  0.00     0.013 A 
ENDBRANCH  10  18
TORSDOF 5
ENDMDL
MODEL 8
REMARK VINA RESULT:      -4.6     35.762     37.161
REMARK  5 active torsions:
REMARK  status: ('A' for Active; 'I' for Inactive)
REMARK    1  A    between atoms: C_12  and  C_10 
REMARK    2  A    between atoms: C_10  and  C_13 
REMARK    3  A    between atoms: C_14  and  C_12 
REMARK    4  A    between atoms: C_17  and  C_14 
REMARK    5  A    between atoms: N_20  and  C_17 
ROOT
ATOM      1  N   UNL d   1     -32.656  -6.587  -2.734  0.00  0.00    -0.191 NA
ATOM      2  C   UNL d   1     -33.065  -6.109  -3.712  0.00  0.00     0.099 C 
ATOM      3  C   UNL d   1     -33.565  -5.523  -4.920  0.00  0.00     0.045 A 
ATOM      4  C   UNL d   1     -32.824  -4.519  -5.572  0.00  0.00     0.023 A 
ATOM      5  C   UNL d   1     -34.780  -5.955  -5.460  0.00  0.00     0.032 A 
ATOM      6  C   UNL d   1     -33.295  -3.941  -6.758  0.00  0.00     0.012 A 
ATOM      7  C   UNL d   1     -35.231  -5.366  -6.635  0.00  0.00    -0.023 A 
ATOM      8  C   UNL d   1     -34.511  -4.365  -7.277  0.00  0.00    -0.011 A 
ATOM      9  C   UNL d   1     -36.457  -5.676  -7.402  0.00  0.00     0.209 A 
ATOM     10  C   UNL d   1     -35.235  -3.952  -8.533  0.00  0.00     0.116 A 
ATOM     11  O   UNL d   1     -36.402  -4.831  -8.569  0.00  0.00    -0.366 OA
ENDROOT
BRANCH  10  12
ATOM     12  C   UNL d   1     -34.440  -4.224  -9.834  0.00  0.00     0.050 C 
BRANCH  12  13
ATOM     13  C   UNL d   1     -35.245  -4.828 -10.992  0.00  0.00     0.034 C 
BRANCH  13  14
ATOM     14  C   UNL d   1     -34.767  -4.224 -12.323  0.00  0.00     0.271 C 
BRANCH  14  15
ATOM     15  N   UNL d   1     -35.190  -4.991 -13.506  0.00  0.00     0.080 N 
ATOM     16  C   UNL d   1     -35.177  -6.433 -13.258  0.00  0.00     0.309 C 
ATOM     17  C   UNL d   1     -36.540  -4.578 -13.906  0.00  0.00     0.309 C 
ENDBRANCH  14  15
ENDBRANCH  13  14
ENDBRANCH  12  13
ENDBRANCH  10  12
BRANCH  10  18
ATOM     18  C   UNL d   1     -35.707  -2.484  -8.528  0.00  0.00    -0.019 A 
ATOM     19  C   UNL d   1     -36.999  -2.132  -8.091  0.00  0.00     0.013 A 
ATOM     20  C   UNL d   1     -37.449  -0.810  -8.149  0.00  0.00     0.043 A 
ATOM     21  C   UNL d   1     -36.613   0.181  -8.642  0.00  0.00     0.116 A 
ATOM     22  F   UNL d   1     -37.048   1.445  -8.707  0.00  0.00    -0.206 F 
ATOM     23  C   UNL d   1     -35.332  -0.127  -9.078  0.00  0.00     0.043 A 
ATOM     24  C   UNL d   1     -34.882  -1.449  -9.022  0.00  0.00     0.013 A 
ENDBRANCH  10  18
TORSDOF 5
ENDMDL
MODEL 9
REMARK VINA RESULT:      -4.6     25.880     28.149
REMARK  5 active torsions:
REMARK  status: ('A' for Active; 'I' for Inactive)
REMARK    1  A    between atoms: C_12  and  C_10 
REMARK    2  A    between atoms: C_10  and  C_13 
REMARK    3  A    between atoms: C_14  and  C_12 
REMARK    4  A    between atoms: C_17  and  C_14 
REMARK    5  A    between atoms: N_20  and  C_17 
ROOT
ATOM      1  N   UNL d   1     -33.162  29.999 -18.106  0.00  0.00    -0.191 NA
ATOM      2  C   UNL d   1     -32.843  28.880 -18.109  0.00  0.00     0.099 C 
ATOM      3  C   UNL d   1     -32.445  27.504 -18.110  0.00  0.00     0.045 A 
ATOM      4  C   UNL d   1     -31.328  27.096 -18.862  0.00  0.00     0.023 A 
ATOM      5  C   UNL d   1     -33.156  26.566 -17.355  0.00  0.00     0.032 A 
ATOM      6  C   UNL d   1     -30.921  25.756 -18.869  0.00  0.00     0.012 A 
ATOM      7  C   UNL d   1     -32.738  25.241 -17.377  0.00  0.00    -0.023 A 
ATOM      8  C   UNL d   1     -31.644  24.830 -18.128  0.00  0.00    -0.011 A 
ATOM      9  C   UNL d   1     -33.307  24.090 -16.643  0.00  0.00     0.209 A 
ATOM     10  C   UNL d   1     -31.421  23.353 -17.925  0.00  0.00     0.116 A 
ATOM     11  O   UNL d   1     -32.455  22.972 -16.965  0.00  0.00    -0.366 OA
ENDROOT
BRANCH  10  12
ATOM     12  C   UNL d   1     -30.061  23.008 -17.267  0.00  0.00     0.050 C 
BRANCH  12  13
ATOM     13  C   UNL d   1     -30.137  22.425 -15.850  0.00  0.00     0.034 C 
BRANCH  13  14
ATOM     14  C   UNL d   1     -29.878  20.910 -15.900  0.00  0.00     0.271 C 
BRANCH  14  15
ATOM     15  N   UNL d   1     -30.169  20.218 -14.635  0.00  0.00     0.080 N 
ATOM     16  C   UNL d   1     -31.492  20.567 -14.112  0.00  0.00     0.309 C 
ATOM     17  C   UNL d   1     -30.092  18.767 -14.836  0.00  0.00     0.309 C 
ENDBRANCH  14  15
ENDBRANCH  13  14
ENDBRANCH  12  13
ENDBRANCH  10  12
BRANCH  10  18
ATOM     18  C   UNL d   1     -31.588  22.514 -19.208  0.00  0.00    -0.019 A 
ATOM     19  C   UNL d   1     -32.644  22.755 -20.108  0.00  0.00     0.013 A 
ATOM     20  C   UNL d   1     -32.833  21.951 -21.236  0.00  0.00     0.043 A 
ATOM     21  C   UNL d   1     -31.968  20.895 -21.482  0.00  0.00     0.116 A 
ATOM     22  F   UNL d   1     -32.156  20.120 -22.558  0.00  0.00    -0.206 F 
ATOM     23  C   UNL d   1     -30.914  20.629 -20.621  0.00  0.00     0.043 A 
ATOM     24  C   UNL d   1     -30.725  21.432 -19.492  0.00  0.00     0.013 A 
ENDBRANCH  10  18
TORSDOF 5
ENDMDL
