MODEL 1
REMARK VINA RESULT:      -3.7      0.000      0.000
REMARK  2 active torsions:
REMARK  status: ('A' for Active; 'I' for Inactive)
REMARK    1  A    between atoms: C_2  and  O_1 
REMARK    2  A    between atoms: C_3  and  C_2 
ROOT
ATOM      1  C   UNL d   1     -34.315  11.875  17.625  0.00  0.00     0.213 C 
ATOM      2  O   UNL d   1     -33.109  12.001  17.596  0.00  0.00    -0.644 OA
ENDROOT
BRANCH   1   3
ATOM      3  C   UNL d   1     -35.280  12.893  17.025  0.00  0.00     0.218 C 
ATOM      4  C   UNL d   1     -34.676  14.026  16.258  0.00  0.00     0.103 C 
ATOM      5  O   UNL d   1     -36.481  12.717  17.211  0.00  0.00    -0.286 OA
ENDBRANCH   1   3
BRANCH   1   6
ATOM      6  O   UNL d   1     -34.993  10.849  18.174  0.00  0.00    -0.771 OA
ATOM      7  H   UNL d   1     -35.891  11.162  18.441  0.00  0.00     0.168 HD
ENDBRANCH   1   6
TORSDOF 2
ENDMDL
MODEL 2
REMARK VINA RESULT:      -3.7      5.443      6.525
REMARK  2 active torsions:
REMARK  status: ('A' for Active; 'I' for Inactive)
REMARK    1  A    between atoms: C_2  and  O_1 
REMARK    2  A    between atoms: C_3  and  C_2 
ROOT
ATOM      1  C   UNL d   1     -30.809  11.751  21.123  0.00  0.00     0.213 C 
ATOM      2  O   UNL d   1     -31.126  12.770  21.699  0.00  0.00    -0.644 OA
ENDROOT
BRANCH   1   3
ATOM      3  C   UNL d   1     -29.374  11.426  20.722  0.00  0.00     0.218 C 
ATOM      4  C   UNL d   1     -28.494  10.836  21.779  0.00  0.00     0.103 C 
ATOM      5  O   UNL d   1     -29.036  11.669  19.567  0.00  0.00    -0.286 OA
ENDBRANCH   1   3
BRANCH   1   6
ATOM      6  O   UNL d   1     -31.640  10.759  20.748  0.00  0.00    -0.771 OA
ATOM      7  H   UNL d   1     -32.456  10.796  21.302  0.00  0.00     0.168 HD
ENDBRANCH   1   6
TORSDOF 2
ENDMDL
MODEL 3
REMARK VINA RESULT:      -3.6     20.726     21.246
REMARK  2 active torsions:
REMARK  status: ('A' for Active; 'I' for Inactive)
REMARK    1  A    between atoms: C_2  and  O_1 
REMARK    2  A    between atoms: C_3  and  C_2 
ROOT
ATOM      1  C   UNL d   1     -29.695  14.809  37.158  0.00  0.00     0.213 C 
ATOM      2  O   UNL d   1     -29.684  13.602  37.277  0.00  0.00    -0.644 OA
ENDROOT
BRANCH   1   3
ATOM      3  C   UNL d   1     -28.681  15.728  37.830  0.00  0.00     0.218 C 
ATOM      4  C   UNL d   1     -27.235  15.441  37.575  0.00  0.00     0.103 C 
ATOM      5  O   UNL d   1     -29.114  16.637  38.534  0.00  0.00    -0.286 OA
ENDBRANCH   1   3
BRANCH   1   6
ATOM      6  O   UNL d   1     -30.575  15.527  36.433  0.00  0.00    -0.771 OA
ATOM      7  H   UNL d   1     -31.456  15.084  36.465  0.00  0.00     0.168 HD
ENDBRANCH   1   6
TORSDOF 2
ENDMDL
MODEL 4
REMARK VINA RESULT:      -3.5     12.204     12.993
REMARK  2 active torsions:
REMARK  status: ('A' for Active; 'I' for Inactive)
REMARK    1  A    between atoms: C_2  and  O_1 
REMARK    2  A    between atoms: C_3  and  C_2 
ROOT
ATOM      1  C   UNL d   1     -30.521  16.855   5.447  0.00  0.00     0.213 C 
ATOM      2  O   UNL d   1     -30.416  15.825   4.815  0.00  0.00    -0.644 OA
ENDROOT
BRANCH   1   3
ATOM      3  C   UNL d   1     -31.690  17.152   6.379  0.00  0.00     0.218 C 
ATOM      4  C   UNL d   1     -31.491  16.852   7.831  0.00  0.00     0.103 C 
ATOM      5  O   UNL d   1     -32.714  17.612   5.881  0.00  0.00    -0.286 OA
ENDBRANCH   1   3
BRANCH   1   6
ATOM      6  O   UNL d   1     -29.651  17.883   5.439  0.00  0.00    -0.771 OA
ATOM      7  H   UNL d   1     -30.130  18.712   5.680  0.00  0.00     0.168 HD
ENDBRANCH   1   6
TORSDOF 2
ENDMDL
MODEL 5
REMARK VINA RESULT:      -3.4      2.588      3.539
REMARK  2 active torsions:
REMARK  status: ('A' for Active; 'I' for Inactive)
REMARK    1  A    between atoms: C_2  and  O_1 
REMARK    2  A    between atoms: C_3  and  C_2 
ROOT
ATOM      1  C   UNL d   1     -37.233  13.468  15.909  0.00  0.00     0.213 C 
ATOM      2  O   UNL d   1     -38.333  13.490  15.400  0.00  0.00    -0.644 OA
ENDROOT
BRANCH   1   3
ATOM      3  C   UNL d   1     -35.964  13.906  15.185  0.00  0.00     0.218 C 
ATOM      4  C   UNL d   1     -34.886  14.521  16.021  0.00  0.00     0.103 C 
ATOM      5  O   UNL d   1     -35.911  13.729  13.971  0.00  0.00    -0.286 OA
ENDBRANCH   1   3
BRANCH   1   6
ATOM      6  O   UNL d   1     -36.945  13.065  17.162  0.00  0.00    -0.771 OA
ATOM      7  H   UNL d   1     -37.678  12.492  17.492  0.00  0.00     0.168 HD
ENDBRANCH   1   6
TORSDOF 2
ENDMDL
MODEL 6
REMARK VINA RESULT:      -3.3     12.719     13.412
REMARK  2 active torsions:
REMARK  status: ('A' for Active; 'I' for Inactive)
REMARK    1  A    between atoms: C_2  and  O_1 
REMARK    2  A    between atoms: C_3  and  C_2 
ROOT
ATOM      1  C   UNL d   1     -29.143  17.718   6.230  0.00  0.00     0.213 C 
ATOM      2  O   UNL d   1     -29.318  18.805   6.738  0.00  0.00    -0.644 OA
ENDROOT
BRANCH   1   3
ATOM      3  C   UNL d   1     -30.272  16.731   5.952  0.00  0.00     0.218 C 
ATOM      4  C   UNL d   1     -30.916  16.089   7.139  0.00  0.00     0.103 C 
ATOM      5  O   UNL d   1     -30.575  16.527   4.779  0.00  0.00    -0.286 OA
ENDBRANCH   1   3
BRANCH   1   6
ATOM      6  O   UNL d   1     -27.962  17.208   5.834  0.00  0.00    -0.771 OA
ATOM      7  H   UNL d   1     -27.731  16.442   6.413  0.00  0.00     0.168 HD
ENDBRANCH   1   6
TORSDOF 2
ENDMDL
MODEL 7
REMARK VINA RESULT:      -3.1      3.929      4.410
REMARK  2 active torsions:
REMARK  status: ('A' for Active; 'I' for Inactive)
REMARK    1  A    between atoms: C_2  and  O_1 
REMARK    2  A    between atoms: C_3  and  C_2 
ROOT
ATOM      1  C   UNL d   1     -37.953  14.571  17.069  0.00  0.00     0.213 C 
ATOM      2  O   UNL d   1     -38.124  13.691  17.885  0.00  0.00    -0.644 OA
ENDROOT
BRANCH   1   3
ATOM      3  C   UNL d   1     -38.069  14.354  15.564  0.00  0.00     0.218 C 
ATOM      4  C   UNL d   1     -37.913  15.560  14.693  0.00  0.00     0.103 C 
ATOM      5  O   UNL d   1     -38.283  13.212  15.168  0.00  0.00    -0.286 OA
ENDBRANCH   1   3
BRANCH   1   6
ATOM      6  O   UNL d   1     -37.641  15.854  17.337  0.00  0.00    -0.771 OA
ATOM      7  H   UNL d   1     -37.940  16.422  16.587  0.00  0.00     0.168 HD
ENDBRANCH   1   6
TORSDOF 2
ENDMDL
MODEL 8
REMARK VINA RESULT:      -3.0      2.917      4.086
REMARK  2 active torsions:
REMARK  status: ('A' for Active; 'I' for Inactive)
REMARK    1  A    between atoms: C_2  and  O_1 
REMARK    2  A    between atoms: C_3  and  C_2 
ROOT
ATOM      1  C   UNL d   1     -37.341  14.001  15.221  0.00  0.00     0.213 C 
ATOM      2  O   UNL d   1     -36.427  13.573  14.548  0.00  0.00    -0.644 OA
ENDROOT
BRANCH   1   3
ATOM      3  C   UNL d   1     -37.409  13.848  16.737  0.00  0.00     0.218 C 
ATOM      4  C   UNL d   1     -38.145  14.911  17.490  0.00  0.00     0.103 C 
ATOM      5  O   UNL d   1     -36.858  12.871  17.236  0.00  0.00    -0.286 OA
ENDBRANCH   1   3
BRANCH   1   6
ATOM      6  O   UNL d   1     -38.420  14.664  14.764  0.00  0.00    -0.771 OA
ATOM      7  H   UNL d   1     -39.104  14.011  14.480  0.00  0.00     0.168 HD
ENDBRANCH   1   6
TORSDOF 2
ENDMDL
MODEL 9
REMARK VINA RESULT:      -3.0      7.683      8.406
REMARK  2 active torsions:
REMARK  status: ('A' for Active; 'I' for Inactive)
REMARK    1  A    between atoms: C_2  and  O_1 
REMARK    2  A    between atoms: C_3  and  C_2 
ROOT
ATOM      1  C   UNL d   1     -27.503   9.504  21.300  0.00  0.00     0.213 C 
ATOM      2  O   UNL d   1     -26.335   9.176  21.277  0.00  0.00    -0.644 OA
ENDROOT
BRANCH   1   3
ATOM      3  C   UNL d   1     -27.980  10.926  21.024  0.00  0.00     0.218 C 
ATOM      4  C   UNL d   1     -29.423  11.219  21.293  0.00  0.00     0.103 C 
ATOM      5  O   UNL d   1     -27.157  11.732  20.601  0.00  0.00    -0.286 OA
ENDBRANCH   1   3
BRANCH   1   6
ATOM      6  O   UNL d   1     -28.549   8.698  21.563  0.00  0.00    -0.771 OA
ATOM      7  H   UNL d   1     -28.357   8.176  22.379  0.00  0.00     0.168 HD
ENDBRANCH   1   6
TORSDOF 2
ENDMDL
