MODEL 1
REMARK VINA RESULT:      -7.3      0.000      0.000
REMARK  4 active torsions:
REMARK  status: ('A' for Active; 'I' for Inactive)
REMARK    1  A    between atoms: N_1  and  C_2 
REMARK    2  A    between atoms: C_2  and  C_3 
REMARK    3  A    between atoms: C_3  and  C_4 
REMARK    4  A    between atoms: C_4  and  N_5 
ROOT
ATOM      1  N   UNL d   1     -14.814  18.099  15.439  0.00  0.00    -0.346 N 
ATOM      2  C   UNL d   1     -13.421  18.025  15.658  0.00  0.00     0.041 A 
ATOM      3  C   UNL d   1     -15.450  19.319  15.126  0.00  0.00     0.042 A 
ATOM      4  C   UNL d   1     -12.877  17.825  16.934  0.00  0.00     0.030 A 
ATOM      5  C   UNL d   1     -12.549  18.238  14.577  0.00  0.00    -0.031 A 
ATOM      6  C   UNL d   1     -16.561  19.752  15.889  0.00  0.00     0.054 A 
ATOM      7  C   UNL d   1     -15.014  20.147  14.065  0.00  0.00    -0.031 A 
ATOM      8  C   UNL d   1     -11.493  17.858  17.131  0.00  0.00     0.002 A 
ATOM      9  C   UNL d   1     -11.161  18.248  14.775  0.00  0.00     0.009 A 
ATOM     10  C   UNL d   1     -13.147  18.491  13.220  0.00  0.00     0.045 C 
ATOM     11  C   UNL d   1     -17.257  20.915  15.571  0.00  0.00     0.036 A 
ATOM     12  C   UNL d   1     -15.722  21.337  13.783  0.00  0.00     0.011 A 
ATOM     13  C   UNL d   1     -13.820  19.864  13.166  0.00  0.00     0.045 C 
ATOM     14  C   UNL d   1     -10.636  18.065  16.052  0.00  0.00     0.001 A 
ATOM     15 CL   UNL d   1     -18.648  21.352  16.485  0.00  0.00    -0.084 Cl
ATOM     16  C   UNL d   1     -16.843  21.711  14.517  0.00  0.00     0.024 A 
ENDROOT
BRANCH   1  17
ATOM     17  C   UNL d   1     -15.620  16.966  15.939  0.00  0.00     0.131 C 
BRANCH  17  18
ATOM     18  C   UNL d   1     -15.517  15.748  14.996  0.00  0.00     0.050 C 
BRANCH  18  19
ATOM     19  C   UNL d   1     -16.545  15.804  13.871  0.00  0.00     0.268 C 
BRANCH  19  20
ATOM     20  N   UNL d   1     -17.777  16.421  14.355  0.00  0.00     0.078 N 
ATOM     21  H   UNL d   1     -17.807  17.401  14.086  0.00  0.00     0.312 HD
ATOM     22  H   UNL d   1     -17.809  16.394  15.374  0.00  0.00     0.312 HD
ENDBRANCH  19  20
ENDBRANCH  18  19
ENDBRANCH  17  18
ENDBRANCH   1  17
TORSDOF 4
ENDMDL
MODEL 2
REMARK VINA RESULT:      -6.8      2.747      5.272
REMARK  4 active torsions:
REMARK  status: ('A' for Active; 'I' for Inactive)
REMARK    1  A    between atoms: N_1  and  C_2 
REMARK    2  A    between atoms: C_2  and  C_3 
REMARK    3  A    between atoms: C_3  and  C_4 
REMARK    4  A    between atoms: C_4  and  N_5 
ROOT
ATOM      1  N   UNL d   1     -15.193  18.711  15.068  0.00  0.00    -0.346 N 
ATOM      2  C   UNL d   1     -16.322  19.356  15.615  0.00  0.00     0.041 A 
ATOM      3  C   UNL d   1     -15.140  18.335  13.709  0.00  0.00     0.042 A 
ATOM      4  C   UNL d   1     -17.203  18.704  16.490  0.00  0.00     0.030 A 
ATOM      5  C   UNL d   1     -16.622  20.668  15.210  0.00  0.00    -0.031 A 
ATOM      6  C   UNL d   1     -14.823  17.001  13.358  0.00  0.00     0.054 A 
ATOM      7  C   UNL d   1     -15.402  19.250  12.662  0.00  0.00    -0.031 A 
ATOM      8  C   UNL d   1     -18.367  19.340  16.933  0.00  0.00     0.002 A 
ATOM      9  C   UNL d   1     -17.778  21.309  15.674  0.00  0.00     0.009 A 
ATOM     10  C   UNL d   1     -15.690  21.341  14.239  0.00  0.00     0.045 C 
ATOM     11  C   UNL d   1     -14.697  16.607  12.028  0.00  0.00     0.036 A 
ATOM     12  C   UNL d   1     -15.295  18.815  11.322  0.00  0.00     0.011 A 
ATOM     13  C   UNL d   1     -15.793  20.708  12.850  0.00  0.00     0.045 C 
ATOM     14  C   UNL d   1     -18.652  20.642  16.530  0.00  0.00     0.001 A 
ATOM     15 CL   UNL d   1     -14.231  14.991  11.660  0.00  0.00    -0.084 Cl
ATOM     16  C   UNL d   1     -14.929  17.511  11.006  0.00  0.00     0.024 A 
ENDROOT
BRANCH   1  17
ATOM     17  C   UNL d   1     -14.259  18.089  16.031  0.00  0.00     0.131 C 
BRANCH  17  18
ATOM     18  C   UNL d   1     -12.842  18.686  15.899  0.00  0.00     0.050 C 
BRANCH  18  19
ATOM     19  C   UNL d   1     -11.851  18.030  16.855  0.00  0.00     0.268 C 
BRANCH  19  20
ATOM     20  N   UNL d   1     -11.109  19.058  17.581  0.00  0.00     0.078 N 
ATOM     21  H   UNL d   1     -11.702  19.867  17.747  0.00  0.00     0.312 HD
ATOM     22  H   UNL d   1     -10.318  19.382  17.024  0.00  0.00     0.312 HD
ENDBRANCH  19  20
ENDBRANCH  18  19
ENDBRANCH  17  18
ENDBRANCH   1  17
TORSDOF 4
ENDMDL
MODEL 3
REMARK VINA RESULT:      -6.4     30.089     31.848
REMARK  4 active torsions:
REMARK  status: ('A' for Active; 'I' for Inactive)
REMARK    1  A    between atoms: N_1  and  C_2 
REMARK    2  A    between atoms: C_2  and  C_3 
REMARK    3  A    between atoms: C_3  and  C_4 
REMARK    4  A    between atoms: C_4  and  N_5 
ROOT
ATOM      1  N   UNL d   1      14.951   8.465  14.489  0.00  0.00    -0.346 N 
ATOM      2  C   UNL d   1      15.843   9.544  14.312  0.00  0.00     0.041 A 
ATOM      3  C   UNL d   1      14.471   7.713  13.396  0.00  0.00     0.042 A 
ATOM      4  C   UNL d   1      15.443  10.878  14.475  0.00  0.00     0.030 A 
ATOM      5  C   UNL d   1      17.154   9.281  13.879  0.00  0.00    -0.031 A 
ATOM      6  C   UNL d   1      13.078   7.529  13.223  0.00  0.00     0.054 A 
ATOM      7  C   UNL d   1      15.339   7.129  12.443  0.00  0.00    -0.031 A 
ATOM      8  C   UNL d   1      16.325  11.926  14.193  0.00  0.00     0.002 A 
ATOM      9  C   UNL d   1      18.042  10.333  13.619  0.00  0.00     0.009 A 
ATOM     10  C   UNL d   1      17.558   7.846  13.669  0.00  0.00     0.045 C 
ATOM     11  C   UNL d   1      12.568   6.739  12.196  0.00  0.00     0.036 A 
ATOM     12  C   UNL d   1      14.792   6.356  11.394  0.00  0.00     0.011 A 
ATOM     13  C   UNL d   1      16.855   7.252  12.447  0.00  0.00     0.045 C 
ATOM     14  C   UNL d   1      17.625  11.654  13.769  0.00  0.00     0.001 A 
ATOM     15 CL   UNL d   1      10.870   6.485  12.080  0.00  0.00    -0.084 Cl
ATOM     16  C   UNL d   1      13.421   6.148  11.280  0.00  0.00     0.024 A 
ENDROOT
BRANCH   1  17
ATOM     17  C   UNL d   1      14.233   8.411  15.780  0.00  0.00     0.131 C 
BRANCH  17  18
ATOM     18  C   UNL d   1      15.193   8.071  16.939  0.00  0.00     0.050 C 
BRANCH  18  19
ATOM     19  C   UNL d   1      15.327   9.221  17.931  0.00  0.00     0.268 C 
BRANCH  19  20
ATOM     20  N   UNL d   1      14.079   9.978  17.984  0.00  0.00     0.078 N 
ATOM     21  H   UNL d   1      14.218  10.848  18.493  0.00  0.00     0.312 HD
ATOM     22  H   UNL d   1      13.367   9.451  18.490  0.00  0.00     0.312 HD
ENDBRANCH  19  20
ENDBRANCH  18  19
ENDBRANCH  17  18
ENDBRANCH   1  17
TORSDOF 4
ENDMDL
MODEL 4
REMARK VINA RESULT:      -6.1     31.053     33.234
REMARK  4 active torsions:
REMARK  status: ('A' for Active; 'I' for Inactive)
REMARK    1  A    between atoms: N_1  and  C_2 
REMARK    2  A    between atoms: C_2  and  C_3 
REMARK    3  A    between atoms: C_3  and  C_4 
REMARK    4  A    between atoms: C_4  and  N_5 
ROOT
ATOM      1  N   UNL d   1      17.069   9.133  14.361  0.00  0.00    -0.346 N 
ATOM      2  C   UNL d   1      16.820   9.131  15.750  0.00  0.00     0.041 A 
ATOM      3  C   UNL d   1      16.317   8.335  13.472  0.00  0.00     0.042 A 
ATOM      4  C   UNL d   1      17.697   8.528  16.663  0.00  0.00     0.030 A 
ATOM      5  C   UNL d   1      15.617   9.677  16.228  0.00  0.00    -0.031 A 
ATOM      6  C   UNL d   1      16.979   7.464  12.574  0.00  0.00     0.054 A 
ATOM      7  C   UNL d   1      14.903   8.363  13.445  0.00  0.00    -0.031 A 
ATOM      8  C   UNL d   1      17.370   8.455  18.021  0.00  0.00     0.002 A 
ATOM      9  C   UNL d   1      15.304   9.622  17.593  0.00  0.00     0.009 A 
ATOM     10  C   UNL d   1      14.667  10.285  15.232  0.00  0.00     0.045 C 
ATOM     11  C   UNL d   1      16.277   6.710  11.637  0.00  0.00     0.036 A 
ATOM     12  C   UNL d   1      14.215   7.566  12.503  0.00  0.00     0.011 A 
ATOM     13  C   UNL d   1      14.025   9.205  14.359  0.00  0.00     0.045 C 
ATOM     14  C   UNL d   1      16.178   9.005  18.486  0.00  0.00     0.001 A 
ATOM     15 CL   UNL d   1      17.138   5.729  10.515  0.00  0.00    -0.084 Cl
ATOM     16  C   UNL d   1      14.894   6.759  11.595  0.00  0.00     0.024 A 
ENDROOT
BRANCH   1  17
ATOM     17  C   UNL d   1      18.375   9.670  13.927  0.00  0.00     0.131 C 
BRANCH  17  18
ATOM     18  C   UNL d   1      18.225  11.079  13.316  0.00  0.00     0.050 C 
BRANCH  18  19
ATOM     19  C   UNL d   1      19.420  11.461  12.448  0.00  0.00     0.268 C 
BRANCH  19  20
ATOM     20  N   UNL d   1      20.234  10.278  12.179  0.00  0.00     0.078 N 
ATOM     21  H   UNL d   1      20.811  10.431  11.355  0.00  0.00     0.312 HD
ATOM     22  H   UNL d   1      19.637   9.477  11.976  0.00  0.00     0.312 HD
ENDBRANCH  19  20
ENDBRANCH  18  19
ENDBRANCH  17  18
ENDBRANCH   1  17
TORSDOF 4
ENDMDL
MODEL 5
REMARK VINA RESULT:      -6.0     32.479     34.220
REMARK  4 active torsions:
REMARK  status: ('A' for Active; 'I' for Inactive)
REMARK    1  A    between atoms: N_1  and  C_2 
REMARK    2  A    between atoms: C_2  and  C_3 
REMARK    3  A    between atoms: C_3  and  C_4 
REMARK    4  A    between atoms: C_4  and  N_5 
ROOT
ATOM      1  N   UNL d   1      17.716   8.352  13.712  0.00  0.00    -0.346 N 
ATOM      2  C   UNL d   1      18.604   9.195  13.009  0.00  0.00     0.041 A 
ATOM      3  C   UNL d   1      17.694   8.309  15.122  0.00  0.00     0.042 A 
ATOM      4  C   UNL d   1      19.711   8.694  12.310  0.00  0.00     0.030 A 
ATOM      5  C   UNL d   1      18.423  10.586  13.079  0.00  0.00    -0.031 A 
ATOM      6  C   UNL d   1      17.813   7.069  15.792  0.00  0.00     0.054 A 
ATOM      7  C   UNL d   1      17.563   9.477  15.910  0.00  0.00    -0.031 A 
ATOM      8  C   UNL d   1      20.628   9.564  11.710  0.00  0.00     0.002 A 
ATOM      9  C   UNL d   1      19.331  11.454  12.458  0.00  0.00     0.009 A 
ATOM     10  C   UNL d   1      17.254  11.112  13.867  0.00  0.00     0.045 C 
ATOM     11  C   UNL d   1      17.729   6.977  17.179  0.00  0.00     0.036 A 
ATOM     12  C   UNL d   1      17.510   9.357  17.317  0.00  0.00     0.011 A 
ATOM     13  C   UNL d   1      17.462  10.894  15.367  0.00  0.00     0.045 C 
ATOM     14  C   UNL d   1      20.436  10.942  11.780  0.00  0.00     0.001 A 
ATOM     15 CL   UNL d   1      17.800   5.433  17.937  0.00  0.00    -0.084 Cl
ATOM     16  C   UNL d   1      17.575   8.118  17.947  0.00  0.00     0.024 A 
ENDROOT
BRANCH   1  17
ATOM     17  C   UNL d   1      17.112   7.245  12.941  0.00  0.00     0.131 C 
BRANCH  17  18
ATOM     18  C   UNL d   1      15.603   7.477  12.717  0.00  0.00     0.050 C 
BRANCH  18  19
ATOM     19  C   UNL d   1      15.147   7.010  11.340  0.00  0.00     0.268 C 
BRANCH  19  20
ATOM     20  N   UNL d   1      13.718   7.265  11.178  0.00  0.00     0.078 N 
ATOM     21  H   UNL d   1      13.469   7.246  10.192  0.00  0.00     0.312 HD
ATOM     22  H   UNL d   1      13.484   8.196  11.523  0.00  0.00     0.312 HD
ENDBRANCH  19  20
ENDBRANCH  18  19
ENDBRANCH  17  18
ENDBRANCH   1  17
TORSDOF 4
ENDMDL
MODEL 6
REMARK VINA RESULT:      -6.0      2.621      5.247
REMARK  4 active torsions:
REMARK  status: ('A' for Active; 'I' for Inactive)
REMARK    1  A    between atoms: N_1  and  C_2 
REMARK    2  A    between atoms: C_2  and  C_3 
REMARK    3  A    between atoms: C_3  and  C_4 
REMARK    4  A    between atoms: C_4  and  N_5 
ROOT
ATOM      1  N   UNL d   1     -16.095  18.871  13.931  0.00  0.00    -0.346 N 
ATOM      2  C   UNL d   1     -16.973  19.455  14.870  0.00  0.00     0.041 A 
ATOM      3  C   UNL d   1     -14.724  18.692  14.211  0.00  0.00     0.042 A 
ATOM      4  C   UNL d   1     -17.492  20.747  14.703  0.00  0.00     0.030 A 
ATOM      5  C   UNL d   1     -17.274  18.754  16.050  0.00  0.00    -0.031 A 
ATOM      6  C   UNL d   1     -13.750  19.186  13.311  0.00  0.00     0.054 A 
ATOM      7  C   UNL d   1     -14.272  18.032  15.378  0.00  0.00    -0.031 A 
ATOM      8  C   UNL d   1     -18.277  21.333  15.700  0.00  0.00     0.002 A 
ATOM      9  C   UNL d   1     -18.079  19.337  17.037  0.00  0.00     0.009 A 
ATOM     10  C   UNL d   1     -16.678  17.385  16.235  0.00  0.00     0.045 C 
ATOM     11  C   UNL d   1     -12.389  18.972  13.517  0.00  0.00     0.036 A 
ATOM     12  C   UNL d   1     -12.884  17.854  15.576  0.00  0.00     0.011 A 
ATOM     13  C   UNL d   1     -15.169  17.472  16.471  0.00  0.00     0.045 C 
ATOM     14  C   UNL d   1     -18.574  20.628  16.864  0.00  0.00     0.001 A 
ATOM     15 CL   UNL d   1     -11.253  19.526  12.349  0.00  0.00    -0.084 Cl
ATOM     16  C   UNL d   1     -11.950  18.304  14.647  0.00  0.00     0.024 A 
ENDROOT
BRANCH   1  17
ATOM     17  C   UNL d   1     -16.563  18.831  12.530  0.00  0.00     0.131 C 
BRANCH  17  18
ATOM     18  C   UNL d   1     -17.430  17.583  12.265  0.00  0.00     0.050 C 
BRANCH  18  19
ATOM     19  C   UNL d   1     -16.777  16.628  11.272  0.00  0.00     0.268 C 
BRANCH  19  20
ATOM     20  N   UNL d   1     -15.506  17.184  10.814  0.00  0.00     0.078 N 
ATOM     21  H   UNL d   1     -15.081  17.740  11.552  0.00  0.00     0.312 HD
ATOM     22  H   UNL d   1     -15.658  17.809  10.023  0.00  0.00     0.312 HD
ENDBRANCH  19  20
ENDBRANCH  18  19
ENDBRANCH  17  18
ENDBRANCH   1  17
TORSDOF 4
ENDMDL
MODEL 7
REMARK VINA RESULT:      -6.0      2.627      4.820
REMARK  4 active torsions:
REMARK  status: ('A' for Active; 'I' for Inactive)
REMARK    1  A    between atoms: N_1  and  C_2 
REMARK    2  A    between atoms: C_2  and  C_3 
REMARK    3  A    between atoms: C_3  and  C_4 
REMARK    4  A    between atoms: C_4  and  N_5 
ROOT
ATOM      1  N   UNL d   1     -16.115  17.927  15.294  0.00  0.00    -0.346 N 
ATOM      2  C   UNL d   1     -16.749  17.456  14.124  0.00  0.00     0.041 A 
ATOM      3  C   UNL d   1     -14.773  18.363  15.285  0.00  0.00     0.042 A 
ATOM      4  C   UNL d   1     -17.047  16.099  13.932  0.00  0.00     0.030 A 
ATOM      5  C   UNL d   1     -17.018  18.360  13.082  0.00  0.00    -0.031 A 
ATOM      6  C   UNL d   1     -13.849  17.820  16.209  0.00  0.00     0.054 A 
ATOM      7  C   UNL d   1     -14.301  19.333  14.370  0.00  0.00    -0.031 A 
ATOM      8  C   UNL d   1     -17.583  15.652  12.720  0.00  0.00     0.002 A 
ATOM      9  C   UNL d   1     -17.575  17.911  11.877  0.00  0.00     0.009 A 
ATOM     10  C   UNL d   1     -16.655  19.806  13.286  0.00  0.00     0.045 C 
ATOM     11  C   UNL d   1     -12.533  18.271  16.277  0.00  0.00     0.036 A 
ATOM     12  C   UNL d   1     -12.953  19.751  14.442  0.00  0.00     0.011 A 
ATOM     13  C   UNL d   1     -15.137  19.996  13.286  0.00  0.00     0.045 C 
ATOM     14  C   UNL d   1     -17.850  16.558  11.695  0.00  0.00     0.001 A 
ATOM     15 CL   UNL d   1     -11.475  17.632  17.474  0.00  0.00    -0.084 Cl
ATOM     16  C   UNL d   1     -12.080  19.239  15.397  0.00  0.00     0.024 A 
ENDROOT
BRANCH   1  17
ATOM     17  C   UNL d   1     -16.756  17.573  16.577  0.00  0.00     0.131 C 
BRANCH  17  18
ATOM     18  C   UNL d   1     -17.981  18.469  16.856  0.00  0.00     0.050 C 
BRANCH  18  19
ATOM     19  C   UNL d   1     -19.297  17.743  16.597  0.00  0.00     0.268 C 
BRANCH  19  20
ATOM     20  N   UNL d   1     -19.959  18.320  15.430  0.00  0.00     0.078 N 
ATOM     21  H   UNL d   1     -20.704  17.705  15.111  0.00  0.00     0.312 HD
ATOM     22  H   UNL d   1     -19.300  18.410  14.658  0.00  0.00     0.312 HD
ENDBRANCH  19  20
ENDBRANCH  18  19
ENDBRANCH  17  18
ENDBRANCH   1  17
TORSDOF 4
ENDMDL
MODEL 8
REMARK VINA RESULT:      -5.9     12.769     14.723
REMARK  4 active torsions:
REMARK  status: ('A' for Active; 'I' for Inactive)
REMARK    1  A    between atoms: N_1  and  C_2 
REMARK    2  A    between atoms: C_2  and  C_3 
REMARK    3  A    between atoms: C_3  and  C_4 
REMARK    4  A    between atoms: C_4  and  N_5 
ROOT
ATOM      1  N   UNL d   1      -4.783  10.589   8.634  0.00  0.00    -0.346 N 
ATOM      2  C   UNL d   1      -3.565   9.921   8.884  0.00  0.00     0.041 A 
ATOM      3  C   UNL d   1      -5.987  10.190   9.253  0.00  0.00     0.042 A 
ATOM      4  C   UNL d   1      -2.960   9.092   7.928  0.00  0.00     0.030 A 
ATOM      5  C   UNL d   1      -2.979  10.023  10.157  0.00  0.00    -0.031 A 
ATOM      6  C   UNL d   1      -7.131   9.921   8.465  0.00  0.00     0.054 A 
ATOM      7  C   UNL d   1      -6.100  10.038  10.656  0.00  0.00    -0.031 A 
ATOM      8  C   UNL d   1      -1.807   8.366   8.244  0.00  0.00     0.002 A 
ATOM      9  C   UNL d   1      -1.811   9.311  10.462  0.00  0.00     0.009 A 
ATOM     10  C   UNL d   1      -3.661  10.884  11.185  0.00  0.00     0.045 C 
ATOM     11  C   UNL d   1      -8.354   9.590   9.042  0.00  0.00     0.036 A 
ATOM     12  C   UNL d   1      -7.346   9.673  11.212  0.00  0.00     0.011 A 
ATOM     13  C   UNL d   1      -4.971  10.246  11.653  0.00  0.00     0.045 C 
ATOM     14  C   UNL d   1      -1.231   8.479   9.507  0.00  0.00     0.001 A 
ATOM     15 CL   UNL d   1      -9.733   9.352   8.039  0.00  0.00    -0.084 Cl
ATOM     16  C   UNL d   1      -8.469   9.467  10.416  0.00  0.00     0.024 A 
ENDROOT
BRANCH   1  17
ATOM     17  C   UNL d   1      -4.834  11.434   7.423  0.00  0.00     0.131 C 
BRANCH  17  18
ATOM     18  C   UNL d   1      -5.063  12.917   7.786  0.00  0.00     0.050 C 
BRANCH  18  19
ATOM     19  C   UNL d   1      -3.813  13.762   7.565  0.00  0.00     0.268 C 
BRANCH  19  20
ATOM     20  N   UNL d   1      -2.898  13.596   8.691  0.00  0.00     0.078 N 
ATOM     21  H   UNL d   1      -3.421  13.402   9.542  0.00  0.00     0.312 HD
ATOM     22  H   UNL d   1      -2.378  14.458   8.854  0.00  0.00     0.312 HD
ENDBRANCH  19  20
ENDBRANCH  18  19
ENDBRANCH  17  18
ENDBRANCH   1  17
TORSDOF 4
ENDMDL
MODEL 9
REMARK VINA RESULT:      -5.7     30.760     32.027
REMARK  4 active torsions:
REMARK  status: ('A' for Active; 'I' for Inactive)
REMARK    1  A    between atoms: N_1  and  C_2 
REMARK    2  A    between atoms: C_2  and  C_3 
REMARK    3  A    between atoms: C_3  and  C_4 
REMARK    4  A    between atoms: C_4  and  N_5 
ROOT
ATOM      1  N   UNL d   1      15.297   8.032  14.258  0.00  0.00    -0.346 N 
ATOM      2  C   UNL d   1      16.372   8.860  13.870  0.00  0.00     0.041 A 
ATOM      3  C   UNL d   1      14.935   7.873  15.613  0.00  0.00     0.042 A 
ATOM      4  C   UNL d   1      17.585   8.337  13.403  0.00  0.00     0.030 A 
ATOM      5  C   UNL d   1      16.254  10.251  14.034  0.00  0.00    -0.031 A 
ATOM      6  C   UNL d   1      14.822   6.575  16.165  0.00  0.00     0.054 A 
ATOM      7  C   UNL d   1      14.682   8.977  16.460  0.00  0.00    -0.031 A 
ATOM      8  C   UNL d   1      18.664   9.181  13.124  0.00  0.00     0.002 A 
ATOM      9  C   UNL d   1      17.331  11.096  13.731  0.00  0.00     0.009 A 
ATOM     10  C   UNL d   1      14.960  10.795  14.575  0.00  0.00     0.045 C 
ATOM     11  C   UNL d   1      14.404   6.374  17.478  0.00  0.00     0.036 A 
ATOM     12  C   UNL d   1      14.286   8.744  17.797  0.00  0.00     0.011 A 
ATOM     13  C   UNL d   1      14.790  10.438  16.052  0.00  0.00     0.045 C 
ATOM     14  C   UNL d   1      18.536  10.560  13.284  0.00  0.00     0.001 A 
ATOM     15 CL   UNL d   1      14.207   4.771  18.074  0.00  0.00    -0.084 Cl
ATOM     16  C   UNL d   1      14.132   7.455  18.298  0.00  0.00     0.024 A 
ENDROOT
BRANCH   1  17
ATOM     17  C   UNL d   1      14.837   7.041  13.262  0.00  0.00     0.131 C 
BRANCH  17  18
ATOM     18  C   UNL d   1      13.445   7.412  12.707  0.00  0.00     0.050 C 
BRANCH  18  19
ATOM     19  C   UNL d   1      13.126   6.673  11.412  0.00  0.00     0.268 C 
BRANCH  19  20
ATOM     20  N   UNL d   1      13.729   7.373  10.281  0.00  0.00     0.078 N 
ATOM     21  H   UNL d   1      13.196   8.212  10.065  0.00  0.00     0.312 HD
ATOM     22  H   UNL d   1      13.704   6.785   9.448  0.00  0.00     0.312 HD
ENDBRANCH  19  20
ENDBRANCH  18  19
ENDBRANCH  17  18
ENDBRANCH   1  17
TORSDOF 4
ENDMDL
