MODEL 1
REMARK VINA RESULT:      -7.7      0.000      0.000
REMARK  8 active torsions:
REMARK  status: ('A' for Active; 'I' for Inactive)
REMARK    1  A    between atoms: C_2  and  C_3 
REMARK    2  A    between atoms: C_3  and  C_5 
REMARK    3  A    between atoms: C_5  and  C_6 
REMARK    4  A    between atoms: C_6  and  C_7 
REMARK    5  A    between atoms: C_7  and  C_8 
REMARK    6  A    between atoms: C_26  and  C_28 
REMARK    7  A    between atoms: C_27  and  O_29 
REMARK    8  A    between atoms: C_28  and  O_31 
ROOT
ATOM      1  C   UNL d   1     -20.746  -2.413 -31.573  0.00  0.00    -0.002 C 
ATOM      2  C   UNL d   1     -19.727  -3.156 -32.444  0.00  0.00     0.006 C 
ATOM      3  C   UNL d   1     -19.906  -2.191 -30.263  0.00  0.00    -0.032 C 
ATOM      4  C   UNL d   1     -19.123  -4.174 -31.497  0.00  0.00     0.010 C 
ATOM      5  C   UNL d   1     -18.789  -1.110 -30.438  0.00  0.00     0.016 C 
ATOM      6  C   UNL d   1     -20.763  -1.706 -29.100  0.00  0.00     0.014 C 
ATOM      7  C   UNL d   1     -19.179  -3.561 -30.065  0.00  0.00     0.023 C 
ATOM      8  C   UNL d   1     -20.385  -2.392 -27.799  0.00  0.00     0.036 C 
ATOM      9  C   UNL d   1     -19.743  -4.438 -28.942  0.00  0.00    -0.072 C 
ATOM     10  C   UNL d   1     -20.422  -3.932 -27.858  0.00  0.00    -0.068 C 
ATOM     11  C   UNL d   1     -19.425  -5.895 -29.149  0.00  0.00     0.035 C 
ATOM     12  C   UNL d   1     -20.838  -4.744 -26.554  0.00  0.00    -0.016 C 
ATOM     13  C   UNL d   1     -20.155  -6.721 -28.162  0.00  0.00     0.011 C 
ATOM     14  C   UNL d   1     -20.517  -3.642 -25.437  0.00  0.00     0.020 C 
ATOM     15  C   UNL d   1     -22.014  -5.392 -25.737  0.00  0.00     0.016 C 
ATOM     16  C   UNL d   1     -20.117  -6.134 -26.775  0.00  0.00     0.015 C 
ATOM     17  C   UNL d   1     -21.287  -6.144 -24.422  0.00  0.00     0.034 C 
ATOM     18  C   UNL d   1     -18.983  -6.051 -25.809  0.00  0.00     0.117 C 
ATOM     19  C   UNL d   1     -19.676  -6.540 -24.517  0.00  0.00     0.132 C 
ENDROOT
BRANCH   1  20
ATOM     20  C   UNL d   1     -22.151  -3.140 -31.414  0.00  0.00    -0.014 C 
ATOM     21  C   UNL d   1     -22.613  -4.148 -32.477  0.00  0.00     0.010 C 
BRANCH  20  22
ATOM     22  C   UNL d   1     -23.355  -2.208 -31.138  0.00  0.00     0.005 C 
BRANCH  22  23
ATOM     23  C   UNL d   1     -24.347  -2.950 -30.231  0.00  0.00     0.001 C 
BRANCH  23  24
ATOM     24  C   UNL d   1     -23.756  -3.780 -29.114  0.00  0.00     0.004 C 
BRANCH  24  25
ATOM     25  C   UNL d   1     -24.540  -3.530 -27.802  0.00  0.00    -0.023 C 
ATOM     26  C   UNL d   1     -23.870  -2.396 -27.052  0.00  0.00     0.009 C 
ATOM     27  C   UNL d   1     -26.032  -3.220 -28.007  0.00  0.00     0.009 C 
ENDBRANCH  24  25
ENDBRANCH  23  24
ENDBRANCH  22  23
ENDBRANCH  20  22
ENDBRANCH   1  20
BRANCH  18  28
ATOM     28  C   UNL d   1     -17.592  -6.449 -26.245  0.00  0.00     0.146 C 
ATOM     29  O   UNL d   1     -17.334  -7.600 -26.583  0.00  0.00    -0.650 OA
BRANCH  28  30
ATOM     30  O   UNL d   1     -16.627  -5.534 -26.198  0.00  0.00    -0.776 OA
ATOM     31  H   UNL d   1     -16.356  -5.283 -25.283  0.00  0.00     0.167 HD
ENDBRANCH  28  30
ENDBRANCH  18  28
BRANCH  19  32
ATOM     32  O   UNL d   1     -19.011  -6.047 -23.354  0.00  0.00    -0.395 OA
ATOM     33  H   UNL d   1     -19.563  -5.347 -22.947  0.00  0.00     0.210 HD
ENDBRANCH  19  32
TORSDOF 8
ENDMDL
MODEL 2
REMARK VINA RESULT:      -7.5      1.767      4.638
REMARK  8 active torsions:
REMARK  status: ('A' for Active; 'I' for Inactive)
REMARK    1  A    between atoms: C_2  and  C_3 
REMARK    2  A    between atoms: C_3  and  C_5 
REMARK    3  A    between atoms: C_5  and  C_6 
REMARK    4  A    between atoms: C_6  and  C_7 
REMARK    5  A    between atoms: C_7  and  C_8 
REMARK    6  A    between atoms: C_26  and  C_28 
REMARK    7  A    between atoms: C_27  and  O_29 
REMARK    8  A    between atoms: C_28  and  O_31 
ROOT
ATOM      1  C   UNL d   1     -23.696  -3.019 -31.369  0.00  0.00    -0.002 C 
ATOM      2  C   UNL d   1     -24.023  -1.547 -31.099  0.00  0.00     0.006 C 
ATOM      3  C   UNL d   1     -23.836  -3.620 -29.923  0.00  0.00    -0.032 C 
ATOM      4  C   UNL d   1     -23.240  -1.232 -29.839  0.00  0.00     0.010 C 
ATOM      5  C   UNL d   1     -25.324  -3.707 -29.447  0.00  0.00     0.016 C 
ATOM      6  C   UNL d   1     -23.296  -5.043 -29.832  0.00  0.00     0.014 C 
ATOM      7  C   UNL d   1     -23.135  -2.553 -29.020  0.00  0.00     0.023 C 
ATOM      8  C   UNL d   1     -22.506  -5.263 -28.554  0.00  0.00     0.036 C 
ATOM      9  C   UNL d   1     -21.752  -2.953 -28.497  0.00  0.00    -0.072 C 
ATOM     10  C   UNL d   1     -21.355  -4.262 -28.337  0.00  0.00    -0.068 C 
ATOM     11  C   UNL d   1     -20.912  -1.755 -28.144  0.00  0.00     0.035 C 
ATOM     12  C   UNL d   1     -20.034  -4.753 -27.599  0.00  0.00    -0.016 C 
ATOM     13  C   UNL d   1     -19.526  -2.175 -27.841  0.00  0.00     0.011 C 
ATOM     14  C   UNL d   1     -20.620  -6.021 -26.815  0.00  0.00     0.020 C 
ATOM     15  C   UNL d   1     -18.600  -5.375 -27.760  0.00  0.00     0.016 C 
ATOM     16  C   UNL d   1     -19.471  -3.411 -26.980  0.00  0.00     0.015 C 
ATOM     17  C   UNL d   1     -17.947  -5.409 -26.212  0.00  0.00     0.034 C 
ATOM     18  C   UNL d   1     -19.796  -3.576 -25.533  0.00  0.00     0.117 C 
ATOM     19  C   UNL d   1     -18.570  -4.388 -25.058  0.00  0.00     0.132 C 
ENDROOT
BRANCH   1  20
ATOM     20  C   UNL d   1     -22.321  -3.275 -32.126  0.00  0.00    -0.014 C 
ATOM     21  C   UNL d   1     -21.661  -2.134 -32.914  0.00  0.00     0.010 C 
BRANCH  20  22
ATOM     22  C   UNL d   1     -22.289  -4.521 -33.044  0.00  0.00     0.005 C 
BRANCH  22  23
ATOM     23  C   UNL d   1     -21.059  -5.363 -32.677  0.00  0.00     0.001 C 
BRANCH  23  24
ATOM     24  C   UNL d   1     -19.830  -5.182 -33.540  0.00  0.00     0.004 C 
BRANCH  24  25
ATOM     25  C   UNL d   1     -18.685  -4.564 -32.699  0.00  0.00    -0.023 C 
ATOM     26  C   UNL d   1     -18.311  -3.227 -33.308  0.00  0.00     0.009 C 
ATOM     27  C   UNL d   1     -19.017  -4.392 -31.208  0.00  0.00     0.009 C 
ENDBRANCH  24  25
ENDBRANCH  23  24
ENDBRANCH  22  23
ENDBRANCH  20  22
ENDBRANCH   1  20
BRANCH  18  28
ATOM     28  C   UNL d   1     -20.424  -2.435 -24.767  0.00  0.00     0.146 C 
ATOM     29  O   UNL d   1     -19.749  -1.696 -24.056  0.00  0.00    -0.650 OA
BRANCH  28  30
ATOM     30  O   UNL d   1     -21.744  -2.280 -24.830  0.00  0.00    -0.776 OA
ATOM     31  H   UNL d   1     -22.183  -2.845 -25.509  0.00  0.00     0.167 HD
ENDBRANCH  28  30
ENDBRANCH  18  28
BRANCH  19  32
ATOM     32  O   UNL d   1     -18.871  -5.145 -23.887  0.00  0.00    -0.395 OA
ATOM     33  H   UNL d   1     -18.323  -4.811 -23.145  0.00  0.00     0.210 HD
ENDBRANCH  19  32
TORSDOF 8
ENDMDL
MODEL 3
REMARK VINA RESULT:      -7.4      2.265      4.073
REMARK  8 active torsions:
REMARK  status: ('A' for Active; 'I' for Inactive)
REMARK    1  A    between atoms: C_2  and  C_3 
REMARK    2  A    between atoms: C_3  and  C_5 
REMARK    3  A    between atoms: C_5  and  C_6 
REMARK    4  A    between atoms: C_6  and  C_7 
REMARK    5  A    between atoms: C_7  and  C_8 
REMARK    6  A    between atoms: C_26  and  C_28 
REMARK    7  A    between atoms: C_27  and  O_29 
REMARK    8  A    between atoms: C_28  and  O_31 
ROOT
ATOM      1  C   UNL d   1     -20.498  -3.139 -32.678  0.00  0.00    -0.002 C 
ATOM      2  C   UNL d   1     -19.612  -1.918 -32.409  0.00  0.00     0.006 C 
ATOM      3  C   UNL d   1     -21.601  -2.948 -31.574  0.00  0.00    -0.032 C 
ATOM      4  C   UNL d   1     -19.478  -1.898 -30.899  0.00  0.00     0.010 C 
ATOM      5  C   UNL d   1     -22.579  -1.770 -31.895  0.00  0.00     0.016 C 
ATOM      6  C   UNL d   1     -22.487  -4.180 -31.421  0.00  0.00     0.014 C 
ATOM      7  C   UNL d   1     -20.781  -2.523 -30.313  0.00  0.00     0.023 C 
ATOM      8  C   UNL d   1     -22.775  -4.487 -29.961  0.00  0.00     0.036 C 
ATOM      9  C   UNL d   1     -20.626  -3.608 -29.243  0.00  0.00    -0.072 C 
ATOM     10  C   UNL d   1     -21.518  -4.644 -29.085  0.00  0.00    -0.068 C 
ATOM     11  C   UNL d   1     -19.419  -3.376 -28.373  0.00  0.00     0.035 C 
ATOM     12  C   UNL d   1     -21.548  -5.672 -27.870  0.00  0.00    -0.016 C 
ATOM     13  C   UNL d   1     -19.192  -4.545 -27.495  0.00  0.00     0.011 C 
ATOM     14  C   UNL d   1     -23.131  -5.773 -27.643  0.00  0.00     0.020 C 
ATOM     15  C   UNL d   1     -21.274  -7.145 -27.396  0.00  0.00     0.016 C 
ATOM     16  C   UNL d   1     -20.468  -5.068 -26.886  0.00  0.00     0.015 C 
ATOM     17  C   UNL d   1     -21.589  -7.153 -25.745  0.00  0.00     0.034 C 
ATOM     18  C   UNL d   1     -21.321  -4.476 -25.814  0.00  0.00     0.117 C 
ATOM     19  C   UNL d   1     -21.545  -5.714 -24.916  0.00  0.00     0.132 C 
ENDROOT
BRANCH   1  20
ATOM     20  C   UNL d   1     -19.733  -4.533 -32.699  0.00  0.00    -0.014 C 
ATOM     21  C   UNL d   1     -18.201  -4.563 -32.599  0.00  0.00     0.010 C 
BRANCH  20  22
ATOM     22  C   UNL d   1     -20.118  -5.485 -33.858  0.00  0.00     0.005 C 
BRANCH  22  23
ATOM     23  C   UNL d   1     -20.736  -6.755 -33.258  0.00  0.00     0.001 C 
BRANCH  23  24
ATOM     24  C   UNL d   1     -20.561  -6.958 -31.770  0.00  0.00     0.004 C 
BRANCH  24  25
ATOM     25  C   UNL d   1     -21.240  -8.282 -31.337  0.00  0.00    -0.023 C 
ATOM     26  C   UNL d   1     -20.326  -8.994 -30.361  0.00  0.00     0.009 C 
ATOM     27  C   UNL d   1     -22.637  -8.103 -30.719  0.00  0.00     0.009 C 
ENDBRANCH  24  25
ENDBRANCH  23  24
ENDBRANCH  22  23
ENDBRANCH  20  22
ENDBRANCH   1  20
BRANCH  18  28
ATOM     28  C   UNL d   1     -21.035  -3.082 -25.306  0.00  0.00     0.146 C 
ATOM     29  O   UNL d   1     -19.943  -2.791 -24.826  0.00  0.00    -0.650 OA
BRANCH  28  30
ATOM     30  O   UNL d   1     -22.015  -2.184 -25.333  0.00  0.00    -0.776 OA
ATOM     31  H   UNL d   1     -22.897  -2.559 -25.568  0.00  0.00     0.167 HD
ENDBRANCH  28  30
ENDBRANCH  18  28
BRANCH  19  32
ATOM     32  O   UNL d   1     -22.742  -5.588 -24.148  0.00  0.00    -0.395 OA
ATOM     33  H   UNL d   1     -23.056  -6.484 -23.904  0.00  0.00     0.210 HD
ENDBRANCH  19  32
TORSDOF 8
ENDMDL
MODEL 4
REMARK VINA RESULT:      -7.2      1.926      4.112
REMARK  8 active torsions:
REMARK  status: ('A' for Active; 'I' for Inactive)
REMARK    1  A    between atoms: C_2  and  C_3 
REMARK    2  A    between atoms: C_3  and  C_5 
REMARK    3  A    between atoms: C_5  and  C_6 
REMARK    4  A    between atoms: C_6  and  C_7 
REMARK    5  A    between atoms: C_7  and  C_8 
REMARK    6  A    between atoms: C_26  and  C_28 
REMARK    7  A    between atoms: C_27  and  O_29 
REMARK    8  A    between atoms: C_28  and  O_31 
ROOT
ATOM      1  C   UNL d   1     -20.837  -3.894 -29.401  0.00  0.00    -0.002 C 
ATOM      2  C   UNL d   1     -19.982  -2.671 -29.050  0.00  0.00     0.006 C 
ATOM      3  C   UNL d   1     -21.279  -4.362 -27.967  0.00  0.00    -0.032 C 
ATOM      4  C   UNL d   1     -19.139  -3.147 -27.884  0.00  0.00     0.010 C 
ATOM      5  C   UNL d   1     -22.339  -3.409 -27.322  0.00  0.00     0.016 C 
ATOM      6  C   UNL d   1     -21.930  -5.741 -27.983  0.00  0.00     0.014 C 
ATOM      7  C   UNL d   1     -19.972  -4.222 -27.122  0.00  0.00     0.023 C 
ATOM      8  C   UNL d   1     -21.467  -6.594 -26.814  0.00  0.00     0.036 C 
ATOM      9  C   UNL d   1     -19.276  -5.542 -26.779  0.00  0.00    -0.072 C 
ATOM     10  C   UNL d   1     -19.938  -6.747 -26.706  0.00  0.00    -0.068 C 
ATOM     11  C   UNL d   1     -17.810  -5.352 -26.492  0.00  0.00     0.035 C 
ATOM     12  C   UNL d   1     -19.337  -8.109 -26.144  0.00  0.00    -0.016 C 
ATOM     13  C   UNL d   1     -17.140  -6.665 -26.368  0.00  0.00     0.011 C 
ATOM     14  C   UNL d   1     -20.609  -8.650 -25.334  0.00  0.00     0.020 C 
ATOM     15  C   UNL d   1     -18.808  -9.548 -26.492  0.00  0.00     0.016 C 
ATOM     16  C   UNL d   1     -17.942  -7.650 -25.556  0.00  0.00     0.015 C 
ATOM     17  C   UNL d   1     -18.288 -10.202 -25.034  0.00  0.00     0.034 C 
ATOM     18  C   UNL d   1     -18.199  -7.685 -24.087  0.00  0.00     0.117 C 
ATOM     19  C   UNL d   1     -17.911  -9.173 -23.785  0.00  0.00     0.132 C 
ENDROOT
BRANCH   1  20
ATOM     20  C   UNL d   1     -20.119  -4.973 -30.322  0.00  0.00    -0.014 C 
ATOM     21  C   UNL d   1     -18.712  -4.695 -30.869  0.00  0.00     0.010 C 
BRANCH  20  22
ATOM     22  C   UNL d   1     -20.960  -5.494 -31.514  0.00  0.00     0.005 C 
BRANCH  22  23
ATOM     23  C   UNL d   1     -22.030  -4.446 -31.849  0.00  0.00     0.001 C 
BRANCH  23  24
ATOM     24  C   UNL d   1     -21.905  -3.753 -33.188  0.00  0.00     0.004 C 
BRANCH  24  25
ATOM     25  C   UNL d   1     -21.611  -2.248 -32.975  0.00  0.00    -0.023 C 
ATOM     26  C   UNL d   1     -22.449  -1.755 -31.812  0.00  0.00     0.009 C 
ATOM     27  C   UNL d   1     -20.128  -1.921 -32.733  0.00  0.00     0.009 C 
ENDBRANCH  24  25
ENDBRANCH  23  24
ENDBRANCH  22  23
ENDBRANCH  20  22
ENDBRANCH   1  20
BRANCH  18  28
ATOM     28  C   UNL d   1     -17.761  -6.528 -23.219  0.00  0.00     0.146 C 
ATOM     29  O   UNL d   1     -16.829  -6.642 -22.427  0.00  0.00    -0.650 OA
BRANCH  28  30
ATOM     30  O   UNL d   1     -18.448  -5.391 -23.283  0.00  0.00    -0.776 OA
ATOM     31  H   UNL d   1     -18.345  -4.815 -22.489  0.00  0.00     0.167 HD
ENDBRANCH  28  30
ENDBRANCH  18  28
BRANCH  19  32
ATOM     32  O   UNL d   1     -18.594  -9.605 -22.609  0.00  0.00    -0.395 OA
ATOM     33  H   UNL d   1     -19.559  -9.597 -22.783  0.00  0.00     0.210 HD
ENDBRANCH  19  32
TORSDOF 8
ENDMDL
MODEL 5
REMARK VINA RESULT:      -6.8      1.782      4.288
REMARK  8 active torsions:
REMARK  status: ('A' for Active; 'I' for Inactive)
REMARK    1  A    between atoms: C_2  and  C_3 
REMARK    2  A    between atoms: C_3  and  C_5 
REMARK    3  A    between atoms: C_5  and  C_6 
REMARK    4  A    between atoms: C_6  and  C_7 
REMARK    5  A    between atoms: C_7  and  C_8 
REMARK    6  A    between atoms: C_26  and  C_28 
REMARK    7  A    between atoms: C_27  and  O_29 
REMARK    8  A    between atoms: C_28  and  O_31 
ROOT
ATOM      1  C   UNL d   1     -21.426  -1.776 -28.040  0.00  0.00    -0.002 C 
ATOM      2  C   UNL d   1     -20.549  -0.939 -27.102  0.00  0.00     0.006 C 
ATOM      3  C   UNL d   1     -21.925  -2.894 -27.055  0.00  0.00    -0.032 C 
ATOM      4  C   UNL d   1     -19.755  -1.977 -26.334  0.00  0.00     0.010 C 
ATOM      5  C   UNL d   1     -22.977  -2.364 -26.025  0.00  0.00     0.016 C 
ATOM      6  C   UNL d   1     -22.612  -4.043 -27.782  0.00  0.00     0.014 C 
ATOM      7  C   UNL d   1     -20.640  -3.257 -26.240  0.00  0.00     0.023 C 
ATOM      8  C   UNL d   1     -22.209  -5.392 -27.209  0.00  0.00     0.036 C 
ATOM      9  C   UNL d   1     -19.992  -4.593 -26.613  0.00  0.00    -0.072 C 
ATOM     10  C   UNL d   1     -20.688  -5.639 -27.176  0.00  0.00    -0.068 C 
ATOM     11  C   UNL d   1     -18.531  -4.635 -26.251  0.00  0.00     0.035 C 
ATOM     12  C   UNL d   1     -20.143  -7.119 -27.383  0.00  0.00    -0.016 C 
ATOM     13  C   UNL d   1     -17.902  -5.851 -26.809  0.00  0.00     0.011 C 
ATOM     14  C   UNL d   1     -21.454  -7.948 -26.981  0.00  0.00     0.020 C 
ATOM     15  C   UNL d   1     -19.643  -8.197 -28.412  0.00  0.00     0.016 C 
ATOM     16  C   UNL d   1     -18.755  -7.080 -26.626  0.00  0.00     0.015 C 
ATOM     17  C   UNL d   1     -19.187  -9.524 -27.489  0.00  0.00     0.034 C 
ATOM     18  C   UNL d   1     -19.057  -7.852 -25.385  0.00  0.00     0.117 C 
ATOM     19  C   UNL d   1     -18.820  -9.295 -25.884  0.00  0.00     0.132 C 
ENDROOT
BRANCH   1  20
ATOM     20  C   UNL d   1     -20.710  -2.260 -29.376  0.00  0.00    -0.014 C 
ATOM     21  C   UNL d   1     -19.342  -1.678 -29.762  0.00  0.00     0.010 C 
BRANCH  20  22
ATOM     22  C   UNL d   1     -21.584  -2.214 -30.652  0.00  0.00     0.005 C 
BRANCH  22  23
ATOM     23  C   UNL d   1     -21.012  -3.212 -31.669  0.00  0.00     0.001 C 
BRANCH  23  24
ATOM     24  C   UNL d   1     -20.986  -4.665 -31.253  0.00  0.00     0.004 C 
BRANCH  24  25
ATOM     25  C   UNL d   1     -19.571  -5.252 -31.484  0.00  0.00    -0.023 C 
ATOM     26  C   UNL d   1     -18.924  -4.505 -32.634  0.00  0.00     0.009 C 
ATOM     27  C   UNL d   1     -18.659  -5.209 -30.247  0.00  0.00     0.009 C 
ENDBRANCH  24  25
ENDBRANCH  23  24
ENDBRANCH  22  23
ENDBRANCH  20  22
ENDBRANCH   1  20
BRANCH  18  28
ATOM     28  C   UNL d   1     -18.615  -7.320 -24.042  0.00  0.00     0.146 C 
ATOM     29  O   UNL d   1     -17.587  -7.721 -23.504  0.00  0.00    -0.650 OA
BRANCH  28  30
ATOM     30  O   UNL d   1     -19.398  -6.445 -23.417  0.00  0.00    -0.776 OA
ATOM     31  H   UNL d   1     -20.343  -6.479 -23.700  0.00  0.00     0.167 HD
ENDBRANCH  28  30
ENDBRANCH  18  28
BRANCH  19  32
ATOM     32  O   UNL d   1     -19.551 -10.240 -25.104  0.00  0.00    -0.395 OA
ATOM     33  H   UNL d   1     -20.258  -9.767 -24.616  0.00  0.00     0.210 HD
ENDBRANCH  19  32
TORSDOF 8
ENDMDL
MODEL 6
REMARK VINA RESULT:      -6.8      1.879      3.502
REMARK  8 active torsions:
REMARK  status: ('A' for Active; 'I' for Inactive)
REMARK    1  A    between atoms: C_2  and  C_3 
REMARK    2  A    between atoms: C_3  and  C_5 
REMARK    3  A    between atoms: C_5  and  C_6 
REMARK    4  A    between atoms: C_6  and  C_7 
REMARK    5  A    between atoms: C_7  and  C_8 
REMARK    6  A    between atoms: C_26  and  C_28 
REMARK    7  A    between atoms: C_27  and  O_29 
REMARK    8  A    between atoms: C_28  and  O_31 
ROOT
ATOM      1  C   UNL d   1     -21.049  -2.820 -29.655  0.00  0.00    -0.002 C 
ATOM      2  C   UNL d   1     -19.828  -1.923 -29.429  0.00  0.00     0.006 C 
ATOM      3  C   UNL d   1     -21.474  -3.114 -28.170  0.00  0.00    -0.032 C 
ATOM      4  C   UNL d   1     -19.065  -2.628 -28.325  0.00  0.00     0.010 C 
ATOM      5  C   UNL d   1     -22.118  -1.872 -27.470  0.00  0.00     0.016 C 
ATOM      6  C   UNL d   1     -22.519  -4.221 -28.074  0.00  0.00     0.014 C 
ATOM      7  C   UNL d   1     -20.112  -3.382 -27.451  0.00  0.00     0.023 C 
ATOM      8  C   UNL d   1     -22.233  -5.165 -26.919  0.00  0.00     0.036 C 
ATOM      9  C   UNL d   1     -19.831  -4.851 -27.120  0.00  0.00    -0.072 C 
ATOM     10  C   UNL d   1     -20.823  -5.787 -26.941  0.00  0.00    -0.068 C 
ATOM     11  C   UNL d   1     -18.358  -5.125 -26.972  0.00  0.00     0.035 C 
ATOM     12  C   UNL d   1     -20.623  -7.264 -26.383  0.00  0.00    -0.016 C 
ATOM     13  C   UNL d   1     -18.120  -6.580 -26.857  0.00  0.00     0.011 C 
ATOM     14  C   UNL d   1     -21.916  -7.373 -25.442  0.00  0.00     0.020 C 
ATOM     15  C   UNL d   1     -20.602  -8.799 -26.721  0.00  0.00     0.016 C 
ATOM     16  C   UNL d   1     -19.105  -7.258 -25.940  0.00  0.00     0.015 C 
ATOM     17  C   UNL d   1     -20.173  -9.569 -25.290  0.00  0.00     0.034 C 
ATOM     18  C   UNL d   1     -19.216  -7.198 -24.453  0.00  0.00     0.117 C 
ATOM     19  C   UNL d   1     -19.376  -8.698 -24.121  0.00  0.00     0.132 C 
ENDROOT
BRANCH   1  20
ATOM     20  C   UNL d   1     -20.795  -4.078 -30.594  0.00  0.00    -0.014 C 
ATOM     21  C   UNL d   1     -19.418  -4.279 -31.243  0.00  0.00     0.010 C 
BRANCH  20  22
ATOM     22  C   UNL d   1     -21.844  -4.298 -31.710  0.00  0.00     0.005 C 
BRANCH  22  23
ATOM     23  C   UNL d   1     -22.582  -5.615 -31.432  0.00  0.00     0.001 C 
BRANCH  23  24
ATOM     24  C   UNL d   1     -21.895  -6.886 -31.879  0.00  0.00     0.004 C 
BRANCH  24  25
ATOM     25  C   UNL d   1     -21.737  -7.848 -30.675  0.00  0.00    -0.023 C 
ATOM     26  C   UNL d   1     -20.342  -7.680 -30.106  0.00  0.00     0.009 C 
ATOM     27  C   UNL d   1     -22.786  -7.653 -29.568  0.00  0.00     0.009 C 
ENDBRANCH  24  25
ENDBRANCH  23  24
ENDBRANCH  22  23
ENDBRANCH  20  22
ENDBRANCH   1  20
BRANCH  18  28
ATOM     28  C   UNL d   1     -18.359  -6.228 -23.673  0.00  0.00     0.146 C 
ATOM     29  O   UNL d   1     -17.418  -6.617 -22.987  0.00  0.00    -0.650 OA
BRANCH  28  30
ATOM     30  O   UNL d   1     -18.682  -4.938 -23.694  0.00  0.00    -0.776 OA
ATOM     31  H   UNL d   1     -19.012  -4.621 -24.568  0.00  0.00     0.167 HD
ENDBRANCH  28  30
ENDBRANCH  18  28
BRANCH  19  32
ATOM     32  O   UNL d   1     -20.043  -8.885 -22.872  0.00  0.00    -0.395 OA
ATOM     33  H   UNL d   1     -20.386  -9.803 -22.832  0.00  0.00     0.210 HD
ENDBRANCH  19  32
TORSDOF 8
ENDMDL
MODEL 7
REMARK VINA RESULT:      -6.7      2.841      6.671
REMARK  8 active torsions:
REMARK  status: ('A' for Active; 'I' for Inactive)
REMARK    1  A    between atoms: C_2  and  C_3 
REMARK    2  A    between atoms: C_3  and  C_5 
REMARK    3  A    between atoms: C_5  and  C_6 
REMARK    4  A    between atoms: C_6  and  C_7 
REMARK    5  A    between atoms: C_7  and  C_8 
REMARK    6  A    between atoms: C_26  and  C_28 
REMARK    7  A    between atoms: C_27  and  O_29 
REMARK    8  A    between atoms: C_28  and  O_31 
ROOT
ATOM      1  C   UNL d   1     -19.643  -8.668 -25.083  0.00  0.00    -0.002 C 
ATOM      2  C   UNL d   1     -20.631  -8.677 -23.911  0.00  0.00     0.006 C 
ATOM      3  C   UNL d   1     -19.164  -7.172 -25.051  0.00  0.00    -0.032 C 
ATOM      4  C   UNL d   1     -21.426  -7.401 -24.104  0.00  0.00     0.010 C 
ATOM      5  C   UNL d   1     -18.222  -6.866 -23.839  0.00  0.00     0.016 C 
ATOM      6  C   UNL d   1     -18.365  -6.792 -26.292  0.00  0.00     0.014 C 
ATOM      7  C   UNL d   1     -20.486  -6.374 -24.805  0.00  0.00     0.023 C 
ATOM      8  C   UNL d   1     -18.741  -5.411 -26.801  0.00  0.00     0.036 C 
ATOM      9  C   UNL d   1     -21.035  -5.636 -26.030  0.00  0.00    -0.072 C 
ATOM     10  C   UNL d   1     -20.245  -5.223 -27.079  0.00  0.00    -0.068 C 
ATOM     11  C   UNL d   1     -22.515  -5.381 -25.921  0.00  0.00     0.035 C 
ATOM     12  C   UNL d   1     -20.696  -4.266 -28.267  0.00  0.00    -0.016 C 
ATOM     13  C   UNL d   1     -23.037  -4.855 -27.202  0.00  0.00     0.011 C 
ATOM     14  C   UNL d   1     -19.379  -3.364 -28.401  0.00  0.00     0.020 C 
ATOM     15  C   UNL d   1     -21.061  -4.156 -29.792  0.00  0.00     0.016 C 
ATOM     16  C   UNL d   1     -22.138  -3.807 -27.807  0.00  0.00     0.015 C 
ATOM     17  C   UNL d   1     -21.517  -2.557 -30.032  0.00  0.00     0.034 C 
ATOM     18  C   UNL d   1     -21.892  -2.401 -27.372  0.00  0.00     0.117 C 
ATOM     19  C   UNL d   1     -22.016  -1.662 -28.724  0.00  0.00     0.132 C 
ENDROOT
BRANCH   1  20
ATOM     20  C   UNL d   1     -20.230  -9.208 -26.459  0.00  0.00    -0.014 C 
ATOM     21  C   UNL d   1     -21.419 -10.179 -26.453  0.00  0.00     0.010 C 
BRANCH  20  22
ATOM     22  C   UNL d   1     -19.187  -9.794 -27.441  0.00  0.00     0.005 C 
BRANCH  22  23
ATOM     23  C   UNL d   1     -19.662  -9.520 -28.875  0.00  0.00     0.001 C 
BRANCH  23  24
ATOM     24  C   UNL d   1     -19.817  -8.069 -29.273  0.00  0.00     0.004 C 
BRANCH  24  25
ATOM     25  C   UNL d   1     -21.126  -7.884 -30.081  0.00  0.00    -0.023 C 
ATOM     26  C   UNL d   1     -21.231  -9.011 -31.089  0.00  0.00     0.009 C 
ATOM     27  C   UNL d   1     -22.398  -7.825 -29.219  0.00  0.00     0.009 C 
ENDBRANCH  24  25
ENDBRANCH  23  24
ENDBRANCH  22  23
ENDBRANCH  20  22
ENDBRANCH   1  20
BRANCH  18  28
ATOM     28  C   UNL d   1     -22.462  -1.906 -26.063  0.00  0.00     0.146 C 
ATOM     29  O   UNL d   1     -21.830  -2.004 -25.015  0.00  0.00    -0.650 OA
BRANCH  28  30
ATOM     30  O   UNL d   1     -23.697  -1.413 -26.056  0.00  0.00    -0.776 OA
ATOM     31  H   UNL d   1     -23.744  -0.453 -25.835  0.00  0.00     0.167 HD
ENDBRANCH  28  30
ENDBRANCH  18  28
BRANCH  19  32
ATOM     32  O   UNL d   1     -21.299  -0.428 -28.709  0.00  0.00    -0.395 OA
ATOM     33  H   UNL d   1     -20.743  -0.396 -27.901  0.00  0.00     0.210 HD
ENDBRANCH  19  32
TORSDOF 8
ENDMDL
MODEL 8
REMARK VINA RESULT:      -6.6      9.006     12.773
REMARK  8 active torsions:
REMARK  status: ('A' for Active; 'I' for Inactive)
REMARK    1  A    between atoms: C_2  and  C_3 
REMARK    2  A    between atoms: C_3  and  C_5 
REMARK    3  A    between atoms: C_5  and  C_6 
REMARK    4  A    between atoms: C_6  and  C_7 
REMARK    5  A    between atoms: C_7  and  C_8 
REMARK    6  A    between atoms: C_26  and  C_28 
REMARK    7  A    between atoms: C_27  and  O_29 
REMARK    8  A    between atoms: C_28  and  O_31 
ROOT
ATOM      1  C   UNL d   1     -20.458 -10.350 -15.748  0.00  0.00    -0.002 C 
ATOM      2  C   UNL d   1     -19.706 -11.449 -14.989  0.00  0.00     0.006 C 
ATOM      3  C   UNL d   1     -20.745 -11.080 -17.111  0.00  0.00    -0.032 C 
ATOM      4  C   UNL d   1     -18.737 -11.996 -16.019  0.00  0.00     0.010 C 
ATOM      5  C   UNL d   1     -21.844 -12.186 -16.982  0.00  0.00     0.016 C 
ATOM      6  C   UNL d   1     -21.255 -10.125 -18.184  0.00  0.00     0.014 C 
ATOM      7  C   UNL d   1     -19.400 -11.815 -17.418  0.00  0.00     0.023 C 
ATOM      8  C   UNL d   1     -20.625 -10.412 -19.536  0.00  0.00     0.036 C 
ATOM      9  C   UNL d   1     -18.553 -11.181 -18.525  0.00  0.00    -0.072 C 
ATOM     10  C   UNL d   1     -19.084 -10.409 -19.533  0.00  0.00    -0.068 C 
ATOM     11  C   UNL d   1     -17.096 -11.542 -18.400  0.00  0.00     0.035 C 
ATOM     12  C   UNL d   1     -18.311  -9.907 -20.830  0.00  0.00    -0.016 C 
ATOM     13  C   UNL d   1     -16.292 -10.752 -19.358  0.00  0.00     0.011 C 
ATOM     14  C   UNL d   1     -19.460 -10.118 -21.926  0.00  0.00     0.020 C 
ATOM     15  C   UNL d   1     -17.668  -8.683 -21.578  0.00  0.00     0.016 C 
ATOM     16  C   UNL d   1     -16.930 -10.670 -20.721  0.00  0.00     0.015 C 
ATOM     17  C   UNL d   1     -16.981  -9.319 -22.974  0.00  0.00     0.034 C 
ATOM     18  C   UNL d   1     -17.073 -11.723 -21.768  0.00  0.00     0.117 C 
ATOM     19  C   UNL d   1     -16.617 -10.940 -23.020  0.00  0.00     0.132 C 
ENDROOT
BRANCH   1  20
ATOM     20  C   UNL d   1     -19.706  -8.951 -15.825  0.00  0.00    -0.014 C 
ATOM     21  C   UNL d   1     -19.104  -8.338 -14.553  0.00  0.00     0.010 C 
BRANCH  20  22
ATOM     22  C   UNL d   1     -20.483  -7.817 -16.536  0.00  0.00     0.005 C 
BRANCH  22  23
ATOM     23  C   UNL d   1     -19.468  -6.846 -17.156  0.00  0.00     0.001 C 
BRANCH  23  24
ATOM     24  C   UNL d   1     -18.367  -7.459 -17.993  0.00  0.00     0.004 C 
BRANCH  24  25
ATOM     25  C   UNL d   1     -17.100  -6.571 -17.922  0.00  0.00    -0.023 C 
ATOM     26  C   UNL d   1     -16.731  -6.375 -16.465  0.00  0.00     0.009 C 
ATOM     27  C   UNL d   1     -15.895  -7.125 -18.701  0.00  0.00     0.009 C 
ENDBRANCH  24  25
ENDBRANCH  23  24
ENDBRANCH  22  23
ENDBRANCH  20  22
ENDBRANCH   1  20
BRANCH  18  28
ATOM     28  C   UNL d   1     -16.691 -13.151 -21.457  0.00  0.00     0.146 C 
ATOM     29  O   UNL d   1     -15.583 -13.593 -21.750  0.00  0.00    -0.650 OA
BRANCH  28  30
ATOM     30  O   UNL d   1     -17.605 -13.948 -20.910  0.00  0.00    -0.776 OA
ATOM     31  H   UNL d   1     -17.644 -13.897 -19.926  0.00  0.00     0.167 HD
ENDBRANCH  28  30
ENDBRANCH  18  28
BRANCH  19  32
ATOM     32  O   UNL d   1     -17.167 -11.501 -24.212  0.00  0.00    -0.395 OA
ATOM     33  H   UNL d   1     -17.878 -10.911 -24.540  0.00  0.00     0.210 HD
ENDBRANCH  19  32
TORSDOF 8
ENDMDL
MODEL 9
REMARK VINA RESULT:      -6.3      3.404      7.772
REMARK  8 active torsions:
REMARK  status: ('A' for Active; 'I' for Inactive)
REMARK    1  A    between atoms: C_2  and  C_3 
REMARK    2  A    between atoms: C_3  and  C_5 
REMARK    3  A    between atoms: C_5  and  C_6 
REMARK    4  A    between atoms: C_6  and  C_7 
REMARK    5  A    between atoms: C_7  and  C_8 
REMARK    6  A    between atoms: C_26  and  C_28 
REMARK    7  A    between atoms: C_27  and  O_29 
REMARK    8  A    between atoms: C_28  and  O_31 
ROOT
ATOM      1  C   UNL d   1     -18.936  -8.353 -24.806  0.00  0.00    -0.002 C 
ATOM      2  C   UNL d   1     -20.069  -8.556 -23.794  0.00  0.00     0.006 C 
ATOM      3  C   UNL d   1     -18.710  -6.802 -24.684  0.00  0.00    -0.032 C 
ATOM      4  C   UNL d   1     -21.020  -7.413 -24.087  0.00  0.00     0.010 C 
ATOM      5  C   UNL d   1     -18.013  -6.399 -23.342  0.00  0.00     0.016 C 
ATOM      6  C   UNL d   1     -17.810  -6.259 -25.788  0.00  0.00     0.014 C 
ATOM      7  C   UNL d   1     -20.163  -6.228 -24.628  0.00  0.00     0.023 C 
ATOM      8  C   UNL d   1     -18.321  -4.935 -26.329  0.00  0.00     0.036 C 
ATOM      9  C   UNL d   1     -20.638  -5.540 -25.911  0.00  0.00    -0.072 C 
ATOM     10  C   UNL d   1     -19.780  -4.972 -26.825  0.00  0.00    -0.068 C 
ATOM     11  C   UNL d   1     -22.140  -5.522 -26.020  0.00  0.00     0.035 C 
ATOM     12  C   UNL d   1     -20.200  -4.054 -28.055  0.00  0.00    -0.016 C 
ATOM     13  C   UNL d   1     -22.547  -5.036 -27.357  0.00  0.00     0.011 C 
ATOM     14  C   UNL d   1     -19.037  -2.955 -27.979  0.00  0.00     0.020 C 
ATOM     15  C   UNL d   1     -20.352  -3.947 -29.615  0.00  0.00     0.016 C 
ATOM     16  C   UNL d   1     -21.748  -3.841 -27.808  0.00  0.00     0.015 C 
ATOM     17  C   UNL d   1     -21.016  -2.429 -29.900  0.00  0.00     0.034 C 
ATOM     18  C   UNL d   1     -21.793  -2.430 -27.324  0.00  0.00     0.117 C 
ATOM     19  C   UNL d   1     -21.835  -1.671 -28.669  0.00  0.00     0.132 C 
ENDROOT
BRANCH   1  20
ATOM     20  C   UNL d   1     -19.224  -8.926 -26.261  0.00  0.00    -0.014 C 
ATOM     21  C   UNL d   1     -20.659  -9.292 -26.667  0.00  0.00     0.010 C 
BRANCH  20  22
ATOM     22  C   UNL d   1     -18.328 -10.110 -26.699  0.00  0.00     0.005 C 
BRANCH  22  23
ATOM     23  C   UNL d   1     -17.449 -10.520 -25.509  0.00  0.00     0.001 C 
BRANCH  23  24
ATOM     24  C   UNL d   1     -17.856 -11.771 -24.763  0.00  0.00     0.004 C 
BRANCH  24  25
ATOM     25  C   UNL d   1     -17.374 -11.686 -23.293  0.00  0.00    -0.023 C 
ATOM     26  C   UNL d   1     -16.472 -12.872 -23.015  0.00  0.00     0.009 C 
ATOM     27  C   UNL d   1     -16.651 -10.377 -22.940  0.00  0.00     0.009 C 
ENDBRANCH  24  25
ENDBRANCH  23  24
ENDBRANCH  22  23
ENDBRANCH  20  22
ENDBRANCH   1  20
BRANCH  18  28
ATOM     28  C   UNL d   1     -22.617  -2.077 -26.108  0.00  0.00     0.146 C 
ATOM     29  O   UNL d   1     -23.772  -1.675 -26.215  0.00  0.00    -0.650 OA
BRANCH  28  30
ATOM     30  O   UNL d   1     -22.045  -2.153 -24.909  0.00  0.00    -0.776 OA
ATOM     31  H   UNL d   1     -21.190  -1.665 -24.842  0.00  0.00     0.167 HD
ENDBRANCH  28  30
ENDBRANCH  18  28
BRANCH  19  32
ATOM     32  O   UNL d   1     -21.332  -0.342 -28.531  0.00  0.00    -0.395 OA
ATOM     33  H   UNL d   1     -22.088   0.284 -28.536  0.00  0.00     0.210 HD
ENDBRANCH  19  32
TORSDOF 8
ENDMDL
