MODEL 1
REMARK VINA RESULT:      -6.0      0.000      0.000
REMARK  6 active torsions:
REMARK  status: ('A' for Active; 'I' for Inactive)
REMARK    1  A    between atoms: O_1  and  C_2 
REMARK    2  A    between atoms: C_2  and  C_3 
REMARK    3  A    between atoms: C_3  and  C_5 
REMARK    4  A    between atoms: C_5  and  C_6 
REMARK    5  A    between atoms: C_6  and  C_7 
REMARK    6  A    between atoms: C_7  and  O_10 
ROOT
ATOM      1  C   UNL d   1     -13.534 -24.033  25.208  0.00  0.00     0.101 C 
ENDROOT
BRANCH   1   2
ATOM      2  C   UNL d   1     -14.107 -25.363  24.726  0.00  0.00     0.118 C 
BRANCH   2   3
ATOM      3  C   UNL d   1     -14.062 -26.401  25.821  0.00  0.00     0.139 C 
ATOM      4  O   UNL d   1     -13.808 -27.582  25.652  0.00  0.00    -0.650 OA
BRANCH   3   5
ATOM      5  O   UNL d   1     -14.335 -25.886  27.040  0.00  0.00    -0.776 OA
ATOM      6  H   UNL d   1     -14.305 -24.911  27.084  0.00  0.00     0.167 HD
ENDBRANCH   3   5
ENDBRANCH   2   3
ENDBRANCH   1   2
BRANCH   1   7
ATOM      7  C   UNL d   1     -14.532 -22.909  25.088  0.00  0.00     0.222 C 
ATOM      8  O   UNL d   1     -14.474 -21.978  24.291  0.00  0.00    -0.286 OA
BRANCH   7   9
ATOM      9  C   UNL d   1     -15.718 -22.950  26.053  0.00  0.00     0.213 C 
ATOM     10  O   UNL d   1     -16.872 -22.844  25.690  0.00  0.00    -0.644 OA
BRANCH   9  11
ATOM     11  O   UNL d   1     -15.306 -23.117  27.323  0.00  0.00    -0.771 OA
ATOM     12  H   UNL d   1     -14.334 -22.962  27.382  0.00  0.00     0.168 HD
ENDBRANCH   9  11
ENDBRANCH   7   9
ENDBRANCH   1   7
TORSDOF 6
ENDMDL
MODEL 2
REMARK VINA RESULT:      -5.6      1.606      2.320
REMARK  6 active torsions:
REMARK  status: ('A' for Active; 'I' for Inactive)
REMARK    1  A    between atoms: O_1  and  C_2 
REMARK    2  A    between atoms: C_2  and  C_3 
REMARK    3  A    between atoms: C_3  and  C_5 
REMARK    4  A    between atoms: C_5  and  C_6 
REMARK    5  A    between atoms: C_6  and  C_7 
REMARK    6  A    between atoms: C_7  and  O_10 
ROOT
ATOM      1  C   UNL d   1     -14.343 -25.687  24.616  0.00  0.00     0.101 C 
ENDROOT
BRANCH   1   2
ATOM      2  C   UNL d   1     -13.904 -26.987  25.284  0.00  0.00     0.118 C 
BRANCH   2   3
ATOM      3  C   UNL d   1     -14.570 -28.179  24.639  0.00  0.00     0.139 C 
ATOM      4  O   UNL d   1     -15.774 -28.376  24.614  0.00  0.00    -0.650 OA
BRANCH   3   5
ATOM      5  O   UNL d   1     -13.685 -29.031  24.076  0.00  0.00    -0.776 OA
ATOM      6  H   UNL d   1     -12.854 -28.613  23.780  0.00  0.00     0.167 HD
ENDBRANCH   3   5
ENDBRANCH   2   3
ENDBRANCH   1   2
BRANCH   1   7
ATOM      7  C   UNL d   1     -13.845 -24.473  25.358  0.00  0.00     0.222 C 
ATOM      8  O   UNL d   1     -12.686 -24.269  25.707  0.00  0.00    -0.286 OA
BRANCH   7   9
ATOM      9  C   UNL d   1     -14.890 -23.408  25.695  0.00  0.00     0.213 C 
ATOM     10  O   UNL d   1     -15.372 -22.666  24.863  0.00  0.00    -0.644 OA
BRANCH   9  11
ATOM     11  O   UNL d   1     -15.188 -23.417  27.007  0.00  0.00    -0.771 OA
ATOM     12  H   UNL d   1     -15.750 -22.637  27.227  0.00  0.00     0.168 HD
ENDBRANCH   9  11
ENDBRANCH   7   9
ENDBRANCH   1   7
TORSDOF 6
ENDMDL
MODEL 3
REMARK VINA RESULT:      -5.2      1.842      4.685
REMARK  6 active torsions:
REMARK  status: ('A' for Active; 'I' for Inactive)
REMARK    1  A    between atoms: O_1  and  C_2 
REMARK    2  A    between atoms: C_2  and  C_3 
REMARK    3  A    between atoms: C_3  and  C_5 
REMARK    4  A    between atoms: C_5  and  C_6 
REMARK    5  A    between atoms: C_6  and  C_7 
REMARK    6  A    between atoms: C_7  and  O_10 
ROOT
ATOM      1  C   UNL d   1     -15.875 -22.632  24.535  0.00  0.00     0.101 C 
ENDROOT
BRANCH   1   2
ATOM      2  C   UNL d   1     -16.166 -21.143  24.697  0.00  0.00     0.118 C 
BRANCH   2   3
ATOM      3  C   UNL d   1     -15.032 -20.307  24.155  0.00  0.00     0.139 C 
ATOM      4  O   UNL d   1     -14.082 -20.744  23.526  0.00  0.00    -0.650 OA
BRANCH   3   5
ATOM      5  O   UNL d   1     -15.170 -18.993  24.437  0.00  0.00    -0.776 OA
ATOM      6  H   UNL d   1     -16.071 -18.643  24.305  0.00  0.00     0.167 HD
ENDBRANCH   3   5
ENDBRANCH   2   3
ENDBRANCH   1   2
BRANCH   1   7
ATOM      7  C   UNL d   1     -15.212 -23.216  25.757  0.00  0.00     0.222 C 
ATOM      8  O   UNL d   1     -15.612 -23.110  26.912  0.00  0.00    -0.286 OA
BRANCH   7   9
ATOM      9  C   UNL d   1     -13.927 -24.011  25.516  0.00  0.00     0.213 C 
ATOM     10  O   UNL d   1     -13.692 -25.070  26.061  0.00  0.00    -0.644 OA
BRANCH   9  11
ATOM     11  O   UNL d   1     -13.124 -23.383  24.638  0.00  0.00    -0.771 OA
ATOM     12  H   UNL d   1     -12.374 -23.974  24.391  0.00  0.00     0.168 HD
ENDBRANCH   9  11
ENDBRANCH   7   9
ENDBRANCH   1   7
TORSDOF 6
ENDMDL
MODEL 4
REMARK VINA RESULT:      -5.1     15.142     16.994
REMARK  6 active torsions:
REMARK  status: ('A' for Active; 'I' for Inactive)
REMARK    1  A    between atoms: O_1  and  C_2 
REMARK    2  A    between atoms: C_2  and  C_3 
REMARK    3  A    between atoms: C_3  and  C_5 
REMARK    4  A    between atoms: C_5  and  C_6 
REMARK    5  A    between atoms: C_6  and  C_7 
REMARK    6  A    between atoms: C_7  and  O_10 
ROOT
ATOM      1  C   UNL d   1     -15.180 -11.422  35.949  0.00  0.00     0.101 C 
ENDROOT
BRANCH   1   2
ATOM      2  C   UNL d   1     -15.893 -10.153  36.406  0.00  0.00     0.118 C 
BRANCH   2   3
ATOM      3  C   UNL d   1     -15.153  -8.921  35.946  0.00  0.00     0.139 C 
ATOM      4  O   UNL d   1     -14.571  -8.814  34.880  0.00  0.00    -0.650 OA
BRANCH   3   5
ATOM      5  O   UNL d   1     -15.197  -7.917  36.851  0.00  0.00    -0.776 OA
ATOM      6  H   UNL d   1     -15.723  -8.114  37.648  0.00  0.00     0.167 HD
ENDBRANCH   3   5
ENDBRANCH   2   3
ENDBRANCH   1   2
BRANCH   1   7
ATOM      7  C   UNL d   1     -16.009 -12.219  34.974  0.00  0.00     0.222 C 
ATOM      8  O   UNL d   1     -15.680 -12.525  33.832  0.00  0.00    -0.286 OA
BRANCH   7   9
ATOM      9  C   UNL d   1     -17.381 -12.680  35.469  0.00  0.00     0.213 C 
ATOM     10  O   UNL d   1     -18.422 -12.356  34.934  0.00  0.00    -0.644 OA
BRANCH   9  11
ATOM     11  O   UNL d   1     -17.267 -13.474  36.549  0.00  0.00    -0.771 OA
ATOM     12  H   UNL d   1     -16.808 -12.988  37.274  0.00  0.00     0.168 HD
ENDBRANCH   9  11
ENDBRANCH   7   9
ENDBRANCH   1   7
TORSDOF 6
ENDMDL
MODEL 5
REMARK VINA RESULT:      -5.1      1.620      4.472
REMARK  6 active torsions:
REMARK  status: ('A' for Active; 'I' for Inactive)
REMARK    1  A    between atoms: O_1  and  C_2 
REMARK    2  A    between atoms: C_2  and  C_3 
REMARK    3  A    between atoms: C_3  and  C_5 
REMARK    4  A    between atoms: C_5  and  C_6 
REMARK    5  A    between atoms: C_6  and  C_7 
REMARK    6  A    between atoms: C_7  and  O_10 
ROOT
ATOM      1  C   UNL d   1     -15.106 -24.169  24.922  0.00  0.00     0.101 C 
ENDROOT
BRANCH   1   2
ATOM      2  C   UNL d   1     -14.987 -22.802  25.589  0.00  0.00     0.118 C 
BRANCH   2   3
ATOM      3  C   UNL d   1     -15.709 -21.745  24.790  0.00  0.00     0.139 C 
ATOM      4  O   UNL d   1     -16.909 -21.529  24.842  0.00  0.00    -0.650 OA
BRANCH   3   5
ATOM      5  O   UNL d   1     -14.881 -21.038  23.991  0.00  0.00    -0.776 OA
ATOM      6  H   UNL d   1     -14.134 -20.613  24.455  0.00  0.00     0.167 HD
ENDBRANCH   3   5
ENDBRANCH   2   3
ENDBRANCH   1   2
BRANCH   1   7
ATOM      7  C   UNL d   1     -13.819 -24.951  24.997  0.00  0.00     0.222 C 
ATOM      8  O   UNL d   1     -12.740 -24.523  25.395  0.00  0.00    -0.286 OA
BRANCH   7   9
ATOM      9  C   UNL d   1     -13.882 -26.407  24.534  0.00  0.00     0.213 C 
ATOM     10  O   UNL d   1     -14.574 -26.779  23.607  0.00  0.00    -0.644 OA
BRANCH   9  11
ATOM     11  O   UNL d   1     -13.083 -27.190  25.280  0.00  0.00    -0.771 OA
ATOM     12  H   UNL d   1     -12.426 -26.634  25.762  0.00  0.00     0.168 HD
ENDBRANCH   9  11
ENDBRANCH   7   9
ENDBRANCH   1   7
TORSDOF 6
ENDMDL
MODEL 6
REMARK VINA RESULT:      -5.1      9.481     11.516
REMARK  6 active torsions:
REMARK  status: ('A' for Active; 'I' for Inactive)
REMARK    1  A    between atoms: O_1  and  C_2 
REMARK    2  A    between atoms: C_2  and  C_3 
REMARK    3  A    between atoms: C_3  and  C_5 
REMARK    4  A    between atoms: C_5  and  C_6 
REMARK    5  A    between atoms: C_6  and  C_7 
REMARK    6  A    between atoms: C_7  and  O_10 
ROOT
ATOM      1  C   UNL d   1     -18.388 -15.304  20.923  0.00  0.00     0.101 C 
ENDROOT
BRANCH   1   2
ATOM      2  C   UNL d   1     -19.791 -15.859  21.154  0.00  0.00     0.118 C 
BRANCH   2   3
ATOM      3  C   UNL d   1     -20.722 -15.462  20.035  0.00  0.00     0.139 C 
ATOM      4  O   UNL d   1     -20.442 -15.499  18.848  0.00  0.00    -0.650 OA
BRANCH   3   5
ATOM      5  O   UNL d   1     -21.929 -15.049  20.481  0.00  0.00    -0.776 OA
ATOM      6  H   UNL d   1     -22.414 -15.711  21.009  0.00  0.00     0.167 HD
ENDBRANCH   3   5
ENDBRANCH   2   3
ENDBRANCH   1   2
BRANCH   1   7
ATOM      7  C   UNL d   1     -17.398 -16.389  20.584  0.00  0.00     0.222 C 
ATOM      8  O   UNL d   1     -16.956 -17.228  21.363  0.00  0.00    -0.286 OA
BRANCH   7   9
ATOM      9  C   UNL d   1     -16.911 -16.435  19.135  0.00  0.00     0.213 C 
ATOM     10  O   UNL d   1     -15.799 -16.084  18.797  0.00  0.00    -0.644 OA
BRANCH   9  11
ATOM     11  O   UNL d   1     -17.867 -16.910  18.315  0.00  0.00    -0.771 OA
ATOM     12  H   UNL d   1     -18.727 -16.472  18.517  0.00  0.00     0.168 HD
ENDBRANCH   9  11
ENDBRANCH   7   9
ENDBRANCH   1   7
TORSDOF 6
ENDMDL
MODEL 7
REMARK VINA RESULT:      -5.0     54.022     56.010
REMARK  6 active torsions:
REMARK  status: ('A' for Active; 'I' for Inactive)
REMARK    1  A    between atoms: O_1  and  C_2 
REMARK    2  A    between atoms: C_2  and  C_3 
REMARK    3  A    between atoms: C_3  and  C_5 
REMARK    4  A    between atoms: C_5  and  C_6 
REMARK    5  A    between atoms: C_6  and  C_7 
REMARK    6  A    between atoms: C_7  and  O_10 
ROOT
ATOM      1  C   UNL d   1     -22.924  14.638 -13.588  0.00  0.00     0.101 C 
ENDROOT
BRANCH   1   2
ATOM      2  C   UNL d   1     -22.102  15.783 -14.173  0.00  0.00     0.118 C 
BRANCH   2   3
ATOM      3  C   UNL d   1     -21.491  15.390 -15.496  0.00  0.00     0.139 C 
ATOM      4  O   UNL d   1     -20.650  16.040 -16.096  0.00  0.00    -0.650 OA
BRANCH   3   5
ATOM      5  O   UNL d   1     -21.974  14.220 -15.968  0.00  0.00    -0.776 OA
ATOM      6  H   UNL d   1     -22.573  13.753 -15.355  0.00  0.00     0.167 HD
ENDBRANCH   3   5
ENDBRANCH   2   3
ENDBRANCH   1   2
BRANCH   1   7
ATOM      7  C   UNL d   1     -23.682  15.056 -12.354  0.00  0.00     0.222 C 
ATOM      8  O   UNL d   1     -24.767  15.628 -12.337  0.00  0.00    -0.286 OA
BRANCH   7   9
ATOM      9  C   UNL d   1     -23.026  14.728 -11.012  0.00  0.00     0.213 C 
ATOM     10  O   UNL d   1     -23.567  14.929  -9.943  0.00  0.00    -0.644 OA
BRANCH   9  11
ATOM     11  O   UNL d   1     -21.802  14.197 -11.185  0.00  0.00    -0.771 OA
ATOM     12  H   UNL d   1     -21.129  14.916 -11.220  0.00  0.00     0.168 HD
ENDBRANCH   9  11
ENDBRANCH   7   9
ENDBRANCH   1   7
TORSDOF 6
ENDMDL
MODEL 8
REMARK VINA RESULT:      -5.0     55.284     56.264
REMARK  6 active torsions:
REMARK  status: ('A' for Active; 'I' for Inactive)
REMARK    1  A    between atoms: O_1  and  C_2 
REMARK    2  A    between atoms: C_2  and  C_3 
REMARK    3  A    between atoms: C_3  and  C_5 
REMARK    4  A    between atoms: C_5  and  C_6 
REMARK    5  A    between atoms: C_6  and  C_7 
REMARK    6  A    between atoms: C_7  and  O_10 
ROOT
ATOM      1  C   UNL d   1     -22.298  14.860 -13.624  0.00  0.00     0.101 C 
ENDROOT
BRANCH   1   2
ATOM      2  C   UNL d   1     -23.781  15.171 -13.803  0.00  0.00     0.118 C 
BRANCH   2   3
ATOM      3  C   UNL d   1     -24.543  14.933 -12.522  0.00  0.00     0.139 C 
ATOM      4  O   UNL d   1     -24.055  14.964 -11.404  0.00  0.00    -0.650 OA
BRANCH   3   5
ATOM      5  O   UNL d   1     -25.852  14.674 -12.734  0.00  0.00    -0.776 OA
ATOM      6  H   UNL d   1     -26.030  14.064 -13.475  0.00  0.00     0.167 HD
ENDBRANCH   3   5
ENDBRANCH   2   3
ENDBRANCH   1   2
BRANCH   1   7
ATOM      7  C   UNL d   1     -21.437  16.087 -13.787  0.00  0.00     0.222 C 
ATOM      8  O   UNL d   1     -21.245  16.696 -14.835  0.00  0.00    -0.286 OA
BRANCH   7   9
ATOM      9  C   UNL d   1     -20.751  16.607 -12.523  0.00  0.00     0.213 C 
ATOM     10  O   UNL d   1     -19.620  17.049 -12.516  0.00  0.00    -0.644 OA
BRANCH   9  11
ATOM     11  O   UNL d   1     -21.562  16.508 -11.454  0.00  0.00    -0.771 OA
ATOM     12  H   UNL d   1     -22.019  17.368 -11.301  0.00  0.00     0.168 HD
ENDBRANCH   9  11
ENDBRANCH   7   9
ENDBRANCH   1   7
TORSDOF 6
ENDMDL
MODEL 9
REMARK VINA RESULT:      -4.9      9.337     10.837
REMARK  6 active torsions:
REMARK  status: ('A' for Active; 'I' for Inactive)
REMARK    1  A    between atoms: O_1  and  C_2 
REMARK    2  A    between atoms: C_2  and  C_3 
REMARK    3  A    between atoms: C_3  and  C_5 
REMARK    4  A    between atoms: C_5  and  C_6 
REMARK    5  A    between atoms: C_6  and  C_7 
REMARK    6  A    between atoms: C_7  and  O_10 
ROOT
ATOM      1  C   UNL d   1     -18.299 -16.166  18.759  0.00  0.00     0.101 C 
ENDROOT
BRANCH   1   2
ATOM      2  C   UNL d   1     -18.125 -17.556  19.365  0.00  0.00     0.118 C 
BRANCH   2   3
ATOM      3  C   UNL d   1     -16.754 -18.110  19.065  0.00  0.00     0.139 C 
ATOM      4  O   UNL d   1     -15.753 -17.893  19.728  0.00  0.00    -0.650 OA
BRANCH   3   5
ATOM      5  O   UNL d   1     -16.737 -18.893  17.964  0.00  0.00    -0.776 OA
ATOM      6  H   UNL d   1     -16.022 -19.557  17.950  0.00  0.00     0.167 HD
ENDBRANCH   3   5
ENDBRANCH   2   3
ENDBRANCH   1   2
BRANCH   1   7
ATOM      7  C   UNL d   1     -19.700 -15.640  18.939  0.00  0.00     0.222 C 
ATOM      8  O   UNL d   1     -20.403 -15.150  18.060  0.00  0.00    -0.286 OA
BRANCH   7   9
ATOM      9  C   UNL d   1     -20.283 -15.734  20.350  0.00  0.00     0.213 C 
ATOM     10  O   UNL d   1     -21.284 -16.370  20.612  0.00  0.00    -0.644 OA
BRANCH   9  11
ATOM     11  O   UNL d   1     -19.546 -15.032  21.230  0.00  0.00    -0.771 OA
ATOM     12  H   UNL d   1     -18.664 -15.459  21.341  0.00  0.00     0.168 HD
ENDBRANCH   9  11
ENDBRANCH   7   9
ENDBRANCH   1   7
TORSDOF 6
ENDMDL
