MODEL 1
REMARK VINA RESULT:      -7.6      0.000      0.000
REMARK  5 active torsions:
REMARK  status: ('A' for Active; 'I' for Inactive)
REMARK    1  A    between atoms: C_2  and  C_3 
REMARK    2  A    between atoms: C_3  and  C_5 
REMARK    3  A    between atoms: C_5  and  C_6 
REMARK    4  A    between atoms: C_6  and  C_7 
REMARK    5  A    between atoms: C_7  and  C_8 
ROOT
ATOM      1  C   UNL d   1     -21.046  -3.351 -32.674  0.00  0.00    -0.002 C 
ATOM      2  C   UNL d   1     -20.845  -4.662 -33.448  0.00  0.00     0.006 C 
ATOM      3  C   UNL d   1     -19.627  -3.207 -32.000  0.00  0.00    -0.032 C 
ATOM      4  C   UNL d   1     -20.044  -5.557 -32.499  0.00  0.00     0.010 C 
ATOM      5  C   UNL d   1     -18.517  -2.881 -33.056  0.00  0.00     0.016 C 
ATOM      6  C   UNL d   1     -19.566  -2.065 -30.997  0.00  0.00     0.014 C 
ATOM      7  C   UNL d   1     -19.314  -4.632 -31.459  0.00  0.00     0.023 C 
ATOM      8  C   UNL d   1     -19.326  -2.462 -29.559  0.00  0.00     0.036 C 
ATOM      9  C   UNL d   1     -19.612  -4.858 -29.967  0.00  0.00    -0.072 C 
ATOM     10  C   UNL d   1     -19.754  -3.836 -29.068  0.00  0.00    -0.068 C 
ATOM     11  C   UNL d   1     -19.638  -6.306 -29.548  0.00  0.00     0.035 C 
ATOM     12  C   UNL d   1     -19.935  -4.016 -27.511  0.00  0.00    -0.016 C 
ATOM     13  C   UNL d   1     -20.482  -6.505 -28.327  0.00  0.00     0.010 C 
ATOM     14  C   UNL d   1     -18.712  -3.171 -26.955  0.00  0.00     0.020 C 
ATOM     15  C   UNL d   1     -21.048  -3.493 -26.525  0.00  0.00     0.021 C 
ATOM     16  C   UNL d   1     -20.161  -5.552 -27.192  0.00  0.00     0.005 C 
ATOM     17  C   UNL d   1     -20.679  -4.019 -25.051  0.00  0.00     0.079 C 
ATOM     18  C   UNL d   1     -19.225  -5.995 -26.107  0.00  0.00     0.084 C 
ATOM     19  C   UNL d   1     -19.495  -5.050 -24.939  0.00  0.00     0.127 C 
ATOM     20  O   UNL d   1     -18.784  -5.099 -23.932  0.00  0.00    -0.298 OA
ENDROOT
BRANCH   1  21
ATOM     21  C   UNL d   1     -22.409  -3.398 -31.840  0.00  0.00    -0.014 C 
ATOM     22  C   UNL d   1     -23.427  -4.415 -32.377  0.00  0.00     0.010 C 
BRANCH  21  23
ATOM     23  C   UNL d   1     -23.153  -2.075 -31.631  0.00  0.00     0.005 C 
BRANCH  23  24
ATOM     24  C   UNL d   1     -23.478  -1.560 -30.231  0.00  0.00     0.001 C 
BRANCH  24  25
ATOM     25  C   UNL d   1     -23.057  -2.545 -29.166  0.00  0.00     0.004 C 
BRANCH  25  26
ATOM     26  C   UNL d   1     -24.227  -3.394 -28.650  0.00  0.00    -0.023 C 
ATOM     27  C   UNL d   1     -23.794  -4.856 -28.673  0.00  0.00     0.009 C 
ATOM     28  C   UNL d   1     -24.667  -2.987 -27.241  0.00  0.00     0.009 C 
ENDBRANCH  25  26
ENDBRANCH  24  25
ENDBRANCH  23  24
ENDBRANCH  21  23
ENDBRANCH   1  21
TORSDOF 5
ENDMDL
MODEL 2
REMARK VINA RESULT:      -7.0      2.416      5.908
REMARK  5 active torsions:
REMARK  status: ('A' for Active; 'I' for Inactive)
REMARK    1  A    between atoms: C_2  and  C_3 
REMARK    2  A    between atoms: C_3  and  C_5 
REMARK    3  A    between atoms: C_5  and  C_6 
REMARK    4  A    between atoms: C_6  and  C_7 
REMARK    5  A    between atoms: C_7  and  C_8 
ROOT
ATOM      1  C   UNL d   1     -19.754  -6.507 -25.389  0.00  0.00    -0.002 C 
ATOM      2  C   UNL d   1     -19.467  -5.503 -24.264  0.00  0.00     0.006 C 
ATOM      3  C   UNL d   1     -18.500  -6.259 -26.312  0.00  0.00    -0.032 C 
ATOM      4  C   UNL d   1     -18.925  -4.262 -24.979  0.00  0.00     0.010 C 
ATOM      5  C   UNL d   1     -17.181  -6.775 -25.644  0.00  0.00     0.016 C 
ATOM      6  C   UNL d   1     -18.589  -6.999 -27.637  0.00  0.00     0.014 C 
ATOM      7  C   UNL d   1     -18.379  -4.709 -26.383  0.00  0.00     0.023 C 
ATOM      8  C   UNL d   1     -18.671  -6.134 -28.873  0.00  0.00     0.036 C 
ATOM      9  C   UNL d   1     -18.990  -4.050 -27.632  0.00  0.00    -0.072 C 
ATOM     10  C   UNL d   1     -19.261  -4.736 -28.784  0.00  0.00    -0.068 C 
ATOM     11  C   UNL d   1     -19.176  -2.557 -27.522  0.00  0.00     0.035 C 
ATOM     12  C   UNL d   1     -19.769  -4.086 -30.129  0.00  0.00    -0.016 C 
ATOM     13  C   UNL d   1     -20.263  -2.076 -28.433  0.00  0.00     0.010 C 
ATOM     14  C   UNL d   1     -18.645  -4.555 -31.146  0.00  0.00     0.020 C 
ATOM     15  C   UNL d   1     -21.033  -4.389 -31.020  0.00  0.00     0.021 C 
ATOM     16  C   UNL d   1     -20.135  -2.566 -29.861  0.00  0.00     0.005 C 
ATOM     17  C   UNL d   1     -21.003  -3.376 -32.268  0.00  0.00     0.079 C 
ATOM     18  C   UNL d   1     -19.466  -1.690 -30.880  0.00  0.00     0.084 C 
ATOM     19  C   UNL d   1     -19.922  -2.232 -32.231  0.00  0.00     0.127 C 
ATOM     20  O   UNL d   1     -19.438  -1.777 -33.270  0.00  0.00    -0.298 OA
ENDROOT
BRANCH   1  21
ATOM     21  C   UNL d   1     -21.261  -6.354 -25.902  0.00  0.00    -0.014 C 
ATOM     22  C   UNL d   1     -22.304  -6.391 -24.775  0.00  0.00     0.010 C 
BRANCH  21  23
ATOM     23  C   UNL d   1     -21.735  -7.320 -26.994  0.00  0.00     0.005 C 
BRANCH  23  24
ATOM     24  C   UNL d   1     -22.305  -6.806 -28.313  0.00  0.00     0.001 C 
BRANCH  24  25
ATOM     25  C   UNL d   1     -23.515  -5.929 -28.092  0.00  0.00     0.004 C 
BRANCH  25  26
ATOM     26  C   UNL d   1     -23.218  -4.441 -28.328  0.00  0.00    -0.023 C 
ATOM     27  C   UNL d   1     -24.201  -3.924 -29.372  0.00  0.00     0.009 C 
ATOM     28  C   UNL d   1     -23.317  -3.615 -27.042  0.00  0.00     0.009 C 
ENDBRANCH  25  26
ENDBRANCH  24  25
ENDBRANCH  23  24
ENDBRANCH  21  23
ENDBRANCH   1  21
TORSDOF 5
ENDMDL
MODEL 3
REMARK VINA RESULT:      -6.7      2.740      5.937
REMARK  5 active torsions:
REMARK  status: ('A' for Active; 'I' for Inactive)
REMARK    1  A    between atoms: C_2  and  C_3 
REMARK    2  A    between atoms: C_3  and  C_5 
REMARK    3  A    between atoms: C_5  and  C_6 
REMARK    4  A    between atoms: C_6  and  C_7 
REMARK    5  A    between atoms: C_7  and  C_8 
ROOT
ATOM      1  C   UNL d   1     -19.683  -2.605 -28.328  0.00  0.00    -0.002 C 
ATOM      2  C   UNL d   1     -19.252  -3.630 -27.270  0.00  0.00     0.006 C 
ATOM      3  C   UNL d   1     -20.970  -2.013 -27.635  0.00  0.00    -0.032 C 
ATOM      4  C   UNL d   1     -20.561  -4.261 -26.784  0.00  0.00     0.010 C 
ATOM      5  C   UNL d   1     -20.605  -1.157 -26.375  0.00  0.00     0.016 C 
ATOM      6  C   UNL d   1     -21.747  -1.071 -28.542  0.00  0.00     0.014 C 
ATOM      7  C   UNL d   1     -21.732  -3.265 -27.110  0.00  0.00     0.023 C 
ATOM      8  C   UNL d   1     -23.136  -1.522 -28.930  0.00  0.00     0.036 C 
ATOM      9  C   UNL d   1     -22.874  -3.773 -28.007  0.00  0.00    -0.072 C 
ATOM     10  C   UNL d   1     -23.470  -3.005 -28.970  0.00  0.00    -0.068 C 
ATOM     11  C   UNL d   1     -23.359  -5.161 -27.672  0.00  0.00     0.035 C 
ATOM     12  C   UNL d   1     -24.723  -3.434 -29.827  0.00  0.00    -0.016 C 
ATOM     13  C   UNL d   1     -23.989  -5.819 -28.860  0.00  0.00     0.010 C 
ATOM     14  C   UNL d   1     -25.741  -2.263 -29.497  0.00  0.00     0.020 C 
ATOM     15  C   UNL d   1     -24.944  -3.506 -31.385  0.00  0.00     0.021 C 
ATOM     16  C   UNL d   1     -25.029  -4.967 -29.561  0.00  0.00     0.005 C 
ATOM     17  C   UNL d   1     -26.441  -4.030 -31.641  0.00  0.00     0.079 C 
ATOM     18  C   UNL d   1     -26.478  -5.149 -29.217  0.00  0.00     0.084 C 
ATOM     19  C   UNL d   1     -27.244  -4.534 -30.384  0.00  0.00     0.127 C 
ATOM     20  O   UNL d   1     -28.472  -4.433 -30.328  0.00  0.00    -0.298 OA
ENDROOT
BRANCH   1  21
ATOM     21  C   UNL d   1     -19.702  -3.274 -29.780  0.00  0.00    -0.014 C 
ATOM     22  C   UNL d   1     -18.799  -4.511 -29.901  0.00  0.00     0.010 C 
BRANCH  21  23
ATOM     23  C   UNL d   1     -19.397  -2.368 -30.978  0.00  0.00     0.005 C 
BRANCH  23  24
ATOM     24  C   UNL d   1     -19.982  -2.654 -32.358  0.00  0.00     0.001 C 
BRANCH  24  25
ATOM     25  C   UNL d   1     -21.380  -3.220 -32.262  0.00  0.00     0.004 C 
BRANCH  25  26
ATOM     26  C   UNL d   1     -21.471  -4.663 -32.778  0.00  0.00    -0.023 C 
ATOM     27  C   UNL d   1     -20.102  -5.056 -33.322  0.00  0.00     0.009 C 
ATOM     28  C   UNL d   1     -21.917  -5.644 -31.690  0.00  0.00     0.009 C 
ENDBRANCH  25  26
ENDBRANCH  24  25
ENDBRANCH  23  24
ENDBRANCH  21  23
ENDBRANCH   1  21
TORSDOF 5
ENDMDL
MODEL 4
REMARK VINA RESULT:      -6.5      1.491      4.719
REMARK  5 active torsions:
REMARK  status: ('A' for Active; 'I' for Inactive)
REMARK    1  A    between atoms: C_2  and  C_3 
REMARK    2  A    between atoms: C_3  and  C_5 
REMARK    3  A    between atoms: C_5  and  C_6 
REMARK    4  A    between atoms: C_6  and  C_7 
REMARK    5  A    between atoms: C_7  and  C_8 
ROOT
ATOM      1  C   UNL d   1     -23.024  -2.645 -29.595  0.00  0.00    -0.002 C 
ATOM      2  C   UNL d   1     -23.439  -1.396 -28.805  0.00  0.00     0.006 C 
ATOM      3  C   UNL d   1     -23.485  -3.774 -28.594  0.00  0.00    -0.032 C 
ATOM      4  C   UNL d   1     -23.076  -1.716 -27.352  0.00  0.00     0.010 C 
ATOM      5  C   UNL d   1     -25.046  -3.860 -28.502  0.00  0.00     0.016 C 
ATOM      6  C   UNL d   1     -23.037  -5.162 -29.025  0.00  0.00     0.014 C 
ATOM      7  C   UNL d   1     -22.989  -3.278 -27.204  0.00  0.00     0.023 C 
ATOM      8  C   UNL d   1     -22.059  -5.855 -28.105  0.00  0.00     0.036 C 
ATOM      9  C   UNL d   1     -21.658  -3.879 -26.720  0.00  0.00    -0.072 C 
ATOM     10  C   UNL d   1     -21.129  -5.034 -27.226  0.00  0.00    -0.068 C 
ATOM     11  C   UNL d   1     -21.027  -3.143 -25.564  0.00  0.00     0.035 C 
ATOM     12  C   UNL d   1     -19.837  -5.756 -26.680  0.00  0.00    -0.016 C 
ATOM     13  C   UNL d   1     -19.545  -3.359 -25.527  0.00  0.00     0.010 C 
ATOM     14  C   UNL d   1     -20.407  -7.196 -26.336  0.00  0.00     0.020 C 
ATOM     15  C   UNL d   1     -18.506  -6.195 -27.400  0.00  0.00     0.021 C 
ATOM     16  C   UNL d   1     -19.129  -4.814 -25.620  0.00  0.00     0.005 C 
ATOM     17  C   UNL d   1     -17.559  -6.881 -26.298  0.00  0.00     0.079 C 
ATOM     18  C   UNL d   1     -18.851  -5.577 -24.358  0.00  0.00     0.084 C 
ATOM     19  C   UNL d   1     -18.026  -6.783 -24.797  0.00  0.00     0.127 C 
ATOM     20  O   UNL d   1     -17.742  -7.664 -23.982  0.00  0.00    -0.298 OA
ENDROOT
BRANCH   1  21
ATOM     21  C   UNL d   1     -21.520  -2.502 -30.118  0.00  0.00    -0.014 C 
ATOM     22  C   UNL d   1     -20.618  -1.680 -29.184  0.00  0.00     0.010 C 
BRANCH  21  23
ATOM     23  C   UNL d   1     -21.316  -1.965 -31.539  0.00  0.00     0.005 C 
BRANCH  23  24
ATOM     24  C   UNL d   1     -20.746  -2.848 -32.645  0.00  0.00     0.001 C 
BRANCH  24  25
ATOM     25  C   UNL d   1     -19.269  -3.100 -32.450  0.00  0.00     0.004 C 
BRANCH  25  26
ATOM     26  C   UNL d   1     -18.951  -4.580 -32.194  0.00  0.00    -0.023 C 
ATOM     27  C   UNL d   1     -18.738  -4.763 -30.695  0.00  0.00     0.009 C 
ATOM     28  C   UNL d   1     -20.058  -5.511 -32.696  0.00  0.00     0.009 C 
ENDBRANCH  25  26
ENDBRANCH  24  25
ENDBRANCH  23  24
ENDBRANCH  21  23
ENDBRANCH   1  21
TORSDOF 5
ENDMDL
MODEL 5
REMARK VINA RESULT:      -6.4      2.169      4.695
REMARK  5 active torsions:
REMARK  status: ('A' for Active; 'I' for Inactive)
REMARK    1  A    between atoms: C_2  and  C_3 
REMARK    2  A    between atoms: C_3  and  C_5 
REMARK    3  A    between atoms: C_5  and  C_6 
REMARK    4  A    between atoms: C_6  and  C_7 
REMARK    5  A    between atoms: C_7  and  C_8 
ROOT
ATOM      1  C   UNL d   1     -20.638  -3.390 -29.248  0.00  0.00    -0.002 C 
ATOM      2  C   UNL d   1     -19.412  -2.489 -29.036  0.00  0.00     0.006 C 
ATOM      3  C   UNL d   1     -21.273  -3.340 -27.806  0.00  0.00    -0.032 C 
ATOM      4  C   UNL d   1     -18.886  -2.869 -27.649  0.00  0.00     0.010 C 
ATOM      5  C   UNL d   1     -21.867  -1.927 -27.485  0.00  0.00     0.016 C 
ATOM      6  C   UNL d   1     -22.437  -4.306 -27.642  0.00  0.00     0.014 C 
ATOM      7  C   UNL d   1     -20.062  -3.535 -26.848  0.00  0.00     0.023 C 
ATOM      8  C   UNL d   1     -22.233  -5.423 -26.646  0.00  0.00     0.036 C 
ATOM      9  C   UNL d   1     -19.850  -4.967 -26.325  0.00  0.00    -0.072 C 
ATOM     10  C   UNL d   1     -20.829  -5.923 -26.340  0.00  0.00    -0.068 C 
ATOM     11  C   UNL d   1     -18.500  -5.209 -25.698  0.00  0.00     0.035 C 
ATOM     12  C   UNL d   1     -20.703  -7.361 -25.704  0.00  0.00    -0.016 C 
ATOM     13  C   UNL d   1     -18.122  -6.656 -25.761  0.00  0.00     0.010 C 
ATOM     14  C   UNL d   1     -21.929  -7.365 -24.697  0.00  0.00     0.020 C 
ATOM     15  C   UNL d   1     -20.905  -8.795 -26.325  0.00  0.00     0.021 C 
ATOM     16  C   UNL d   1     -19.200  -7.599 -25.262  0.00  0.00     0.005 C 
ATOM     17  C   UNL d   1     -20.623  -9.872 -25.166  0.00  0.00     0.079 C 
ATOM     18  C   UNL d   1     -19.152  -8.079 -23.841  0.00  0.00     0.084 C 
ATOM     19  C   UNL d   1     -20.035  -9.324 -23.812  0.00  0.00     0.127 C 
ATOM     20  O   UNL d   1     -20.282  -9.877 -22.738  0.00  0.00    -0.298 OA
ENDROOT
BRANCH   1  21
ATOM     21  C   UNL d   1     -20.212  -4.752 -29.970  0.00  0.00    -0.014 C 
ATOM     22  C   UNL d   1     -18.797  -4.718 -30.567  0.00  0.00     0.010 C 
BRANCH  21  23
ATOM     23  C   UNL d   1     -21.150  -5.300 -31.050  0.00  0.00     0.005 C 
BRANCH  23  24
ATOM     24  C   UNL d   1     -22.243  -4.431 -31.666  0.00  0.00     0.001 C 
BRANCH  24  25
ATOM     25  C   UNL d   1     -21.814  -3.859 -32.998  0.00  0.00     0.004 C 
BRANCH  25  26
ATOM     26  C   UNL d   1     -21.560  -2.347 -32.937  0.00  0.00    -0.023 C 
ATOM     27  C   UNL d   1     -22.425  -1.767 -31.823  0.00  0.00     0.009 C 
ATOM     28  C   UNL d   1     -20.084  -2.012 -32.699  0.00  0.00     0.009 C 
ENDBRANCH  25  26
ENDBRANCH  24  25
ENDBRANCH  23  24
ENDBRANCH  21  23
ENDBRANCH   1  21
TORSDOF 5
ENDMDL
MODEL 6
REMARK VINA RESULT:      -6.4      9.842     13.956
REMARK  5 active torsions:
REMARK  status: ('A' for Active; 'I' for Inactive)
REMARK    1  A    between atoms: C_2  and  C_3 
REMARK    2  A    between atoms: C_3  and  C_5 
REMARK    3  A    between atoms: C_5  and  C_6 
REMARK    4  A    between atoms: C_6  and  C_7 
REMARK    5  A    between atoms: C_7  and  C_8 
ROOT
ATOM      1  C   UNL d   1     -20.121  -9.779 -15.282  0.00  0.00    -0.002 C 
ATOM      2  C   UNL d   1     -19.407 -10.853 -14.450  0.00  0.00     0.006 C 
ATOM      3  C   UNL d   1     -20.688 -10.667 -16.456  0.00  0.00    -0.032 C 
ATOM      4  C   UNL d   1     -18.742 -11.768 -15.483  0.00  0.00     0.010 C 
ATOM      5  C   UNL d   1     -21.833 -11.615 -15.961  0.00  0.00     0.016 C 
ATOM      6  C   UNL d   1     -21.313  -9.841 -17.570  0.00  0.00     0.014 C 
ATOM      7  C   UNL d   1     -19.496 -11.586 -16.850  0.00  0.00     0.023 C 
ATOM      8  C   UNL d   1     -20.625  -9.916 -18.913  0.00  0.00     0.036 C 
ATOM      9  C   UNL d   1     -18.673 -11.124 -18.065  0.00  0.00    -0.072 C 
ATOM     10  C   UNL d   1     -19.139 -10.229 -18.989  0.00  0.00    -0.068 C 
ATOM     11  C   UNL d   1     -17.341 -11.816 -18.216  0.00  0.00     0.035 C 
ATOM     12  C   UNL d   1     -18.388  -9.819 -20.315  0.00  0.00    -0.016 C 
ATOM     13  C   UNL d   1     -16.372 -10.969 -18.982  0.00  0.00     0.010 C 
ATOM     14  C   UNL d   1     -19.471 -10.189 -21.413  0.00  0.00     0.020 C 
ATOM     15  C   UNL d   1     -17.956  -8.411 -20.874  0.00  0.00     0.021 C 
ATOM     16  C   UNL d   1     -16.923 -10.424 -20.285  0.00  0.00     0.005 C 
ATOM     17  C   UNL d   1     -17.213  -8.652 -22.279  0.00  0.00     0.079 C 
ATOM     18  C   UNL d   1     -16.645 -11.161 -21.562  0.00  0.00     0.084 C 
ATOM     19  C   UNL d   1     -16.898 -10.143 -22.671  0.00  0.00     0.127 C 
ATOM     20  O   UNL d   1     -16.860 -10.499 -23.852  0.00  0.00    -0.298 OA
ENDROOT
BRANCH   1  21
ATOM     21  C   UNL d   1     -19.158  -8.525 -15.522  0.00  0.00    -0.014 C 
ATOM     22  C   UNL d   1     -18.635  -7.892 -14.224  0.00  0.00     0.010 C 
BRANCH  21  23
ATOM     23  C   UNL d   1     -19.687  -7.389 -16.404  0.00  0.00     0.005 C 
BRANCH  23  24
ATOM     24  C   UNL d   1     -18.914  -6.913 -17.631  0.00  0.00     0.001 C 
BRANCH  24  25
ATOM     25  C   UNL d   1     -17.791  -5.975 -17.251  0.00  0.00     0.004 C 
BRANCH  25  26
ATOM     26  C   UNL d   1     -16.461  -6.707 -17.023  0.00  0.00    -0.023 C 
ATOM     27  C   UNL d   1     -15.741  -6.804 -18.364  0.00  0.00     0.009 C 
ATOM     28  C   UNL d   1     -15.577  -6.003 -15.990  0.00  0.00     0.009 C 
ENDBRANCH  25  26
ENDBRANCH  24  25
ENDBRANCH  23  24
ENDBRANCH  21  23
ENDBRANCH   1  21
TORSDOF 5
ENDMDL
MODEL 7
REMARK VINA RESULT:      -6.2      1.469      2.399
REMARK  5 active torsions:
REMARK  status: ('A' for Active; 'I' for Inactive)
REMARK    1  A    between atoms: C_2  and  C_3 
REMARK    2  A    between atoms: C_3  and  C_5 
REMARK    3  A    between atoms: C_5  and  C_6 
REMARK    4  A    between atoms: C_6  and  C_7 
REMARK    5  A    between atoms: C_7  and  C_8 
ROOT
ATOM      1  C   UNL d   1     -21.487  -2.982 -31.616  0.00  0.00    -0.002 C 
ATOM      2  C   UNL d   1     -21.173  -3.933 -32.780  0.00  0.00     0.006 C 
ATOM      3  C   UNL d   1     -20.025  -2.638 -31.135  0.00  0.00    -0.032 C 
ATOM      4  C   UNL d   1     -20.009  -4.792 -32.279  0.00  0.00     0.010 C 
ATOM      5  C   UNL d   1     -19.268  -1.751 -32.181  0.00  0.00     0.016 C 
ATOM      6  C   UNL d   1     -20.004  -1.834 -29.845  0.00  0.00     0.014 C 
ATOM      7  C   UNL d   1     -19.295  -4.013 -31.115  0.00  0.00     0.023 C 
ATOM      8  C   UNL d   1     -19.379  -2.517 -28.650  0.00  0.00     0.036 C 
ATOM      9  C   UNL d   1     -19.209  -4.701 -29.741  0.00  0.00    -0.072 C 
ATOM     10  C   UNL d   1     -19.377  -4.035 -28.558  0.00  0.00    -0.068 C 
ATOM     11  C   UNL d   1     -18.824  -6.158 -29.796  0.00  0.00     0.035 C 
ATOM     12  C   UNL d   1     -19.176  -4.665 -27.126  0.00  0.00    -0.016 C 
ATOM     13  C   UNL d   1     -19.320  -6.898 -28.593  0.00  0.00     0.010 C 
ATOM     14  C   UNL d   1     -18.079  -3.696 -26.511  0.00  0.00     0.020 C 
ATOM     15  C   UNL d   1     -20.138  -4.750 -25.881  0.00  0.00     0.021 C 
ATOM     16  C   UNL d   1     -18.983  -6.231 -27.274  0.00  0.00     0.005 C 
ATOM     17  C   UNL d   1     -19.355  -5.526 -24.712  0.00  0.00     0.079 C 
ATOM     18  C   UNL d   1     -17.761  -6.672 -26.523  0.00  0.00     0.084 C 
ATOM     19  C   UNL d   1     -17.976  -6.184 -25.093  0.00  0.00     0.127 C 
ATOM     20  O   UNL d   1     -17.073  -6.301 -24.261  0.00  0.00    -0.298 OA
ENDROOT
BRANCH   1  21
ATOM     21  C   UNL d   1     -22.595  -3.622 -30.656  0.00  0.00    -0.014 C 
ATOM     22  C   UNL d   1     -22.900  -2.773 -29.413  0.00  0.00     0.010 C 
BRANCH  21  23
ATOM     23  C   UNL d   1     -22.369  -5.062 -30.182  0.00  0.00     0.005 C 
BRANCH  23  24
ATOM     24  C   UNL d   1     -23.389  -5.774 -29.297  0.00  0.00     0.001 C 
BRANCH  24  25
ATOM     25  C   UNL d   1     -22.793  -6.163 -27.964  0.00  0.00     0.004 C 
BRANCH  25  26
ATOM     26  C   UNL d   1     -22.981  -7.652 -27.644  0.00  0.00    -0.023 C 
ATOM     27  C   UNL d   1     -22.638  -8.451 -28.897  0.00  0.00     0.009 C 
ATOM     28  C   UNL d   1     -22.119  -8.109 -26.464  0.00  0.00     0.009 C 
ENDBRANCH  25  26
ENDBRANCH  24  25
ENDBRANCH  23  24
ENDBRANCH  21  23
ENDBRANCH   1  21
TORSDOF 5
ENDMDL
MODEL 8
REMARK VINA RESULT:      -6.1      2.702      5.703
REMARK  5 active torsions:
REMARK  status: ('A' for Active; 'I' for Inactive)
REMARK    1  A    between atoms: C_2  and  C_3 
REMARK    2  A    between atoms: C_3  and  C_5 
REMARK    3  A    between atoms: C_5  and  C_6 
REMARK    4  A    between atoms: C_6  and  C_7 
REMARK    5  A    between atoms: C_7  and  C_8 
ROOT
ATOM      1  C   UNL d   1     -19.323  -3.505 -29.636  0.00  0.00    -0.002 C 
ATOM      2  C   UNL d   1     -19.126  -2.161 -28.920  0.00  0.00     0.006 C 
ATOM      3  C   UNL d   1     -20.374  -3.084 -30.734  0.00  0.00    -0.032 C 
ATOM      4  C   UNL d   1     -20.529  -1.551 -28.845  0.00  0.00     0.010 C 
ATOM      5  C   UNL d   1     -19.736  -2.147 -31.814  0.00  0.00     0.016 C 
ATOM      6  C   UNL d   1     -20.920  -4.272 -31.512  0.00  0.00     0.014 C 
ATOM      7  C   UNL d   1     -21.411  -2.220 -29.959  0.00  0.00     0.023 C 
ATOM      8  C   UNL d   1     -22.396  -4.549 -31.346  0.00  0.00     0.036 C 
ATOM      9  C   UNL d   1     -22.690  -2.952 -29.516  0.00  0.00    -0.072 C 
ATOM     10  C   UNL d   1     -23.109  -4.131 -30.070  0.00  0.00    -0.068 C 
ATOM     11  C   UNL d   1     -23.506  -2.214 -28.485  0.00  0.00     0.035 C 
ATOM     12  C   UNL d   1     -24.471  -4.855 -29.741  0.00  0.00    -0.016 C 
ATOM     13  C   UNL d   1     -24.343  -3.157 -27.677  0.00  0.00     0.010 C 
ATOM     14  C   UNL d   1     -25.128  -4.952 -31.182  0.00  0.00     0.020 C 
ATOM     15  C   UNL d   1     -24.779  -6.318 -29.243  0.00  0.00     0.021 C 
ATOM     16  C   UNL d   1     -25.156  -4.130 -28.508  0.00  0.00     0.005 C 
ATOM     17  C   UNL d   1     -26.373  -6.452 -29.081  0.00  0.00     0.079 C 
ATOM     18  C   UNL d   1     -26.583  -3.801 -28.834  0.00  0.00     0.084 C 
ATOM     19  C   UNL d   1     -27.217  -5.132 -29.229  0.00  0.00     0.127 C 
ATOM     20  O   UNL d   1     -28.371  -5.158 -29.664  0.00  0.00    -0.298 OA
ENDROOT
BRANCH   1  21
ATOM     21  C   UNL d   1     -19.588  -4.670 -28.573  0.00  0.00    -0.014 C 
ATOM     22  C   UNL d   1     -19.128  -4.324 -27.150  0.00  0.00     0.010 C 
BRANCH  21  23
ATOM     23  C   UNL d   1     -19.040  -6.063 -28.904  0.00  0.00     0.005 C 
BRANCH  23  24
ATOM     24  C   UNL d   1     -19.974  -7.251 -29.120  0.00  0.00     0.001 C 
BRANCH  24  25
ATOM     25  C   UNL d   1     -21.386  -6.934 -28.685  0.00  0.00     0.004 C 
BRANCH  25  26
ATOM     26  C   UNL d   1     -21.634  -7.252 -27.204  0.00  0.00    -0.023 C 
ATOM     27  C   UNL d   1     -22.328  -6.048 -26.574  0.00  0.00     0.009 C 
ATOM     28  C   UNL d   1     -22.474  -8.517 -27.010  0.00  0.00     0.009 C 
ENDBRANCH  25  26
ENDBRANCH  24  25
ENDBRANCH  23  24
ENDBRANCH  21  23
ENDBRANCH   1  21
TORSDOF 5
ENDMDL
MODEL 9
REMARK VINA RESULT:      -5.9      3.566      7.945
REMARK  5 active torsions:
REMARK  status: ('A' for Active; 'I' for Inactive)
REMARK    1  A    between atoms: C_2  and  C_3 
REMARK    2  A    between atoms: C_3  and  C_5 
REMARK    3  A    between atoms: C_5  and  C_6 
REMARK    4  A    between atoms: C_6  and  C_7 
REMARK    5  A    between atoms: C_7  and  C_8 
ROOT
ATOM      1  C   UNL d   1     -18.817  -8.021 -24.314  0.00  0.00    -0.002 C 
ATOM      2  C   UNL d   1     -18.048  -8.870 -25.336  0.00  0.00     0.006 C 
ATOM      3  C   UNL d   1     -20.218  -7.921 -25.033  0.00  0.00    -0.032 C 
ATOM      4  C   UNL d   1     -18.487  -8.329 -26.700  0.00  0.00     0.010 C 
ATOM      5  C   UNL d   1     -20.960  -9.300 -25.045  0.00  0.00     0.016 C 
ATOM      6  C   UNL d   1     -21.171  -6.965 -24.333  0.00  0.00     0.014 C 
ATOM      7  C   UNL d   1     -19.865  -7.598 -26.514  0.00  0.00     0.023 C 
ATOM      8  C   UNL d   1     -21.574  -5.739 -25.120  0.00  0.00     0.036 C 
ATOM      9  C   UNL d   1     -19.948  -6.114 -26.910  0.00  0.00    -0.072 C 
ATOM     10  C   UNL d   1     -20.647  -5.184 -26.189  0.00  0.00    -0.068 C 
ATOM     11  C   UNL d   1     -19.278  -5.779 -28.219  0.00  0.00     0.035 C 
ATOM     12  C   UNL d   1     -20.866  -3.682 -26.618  0.00  0.00    -0.016 C 
ATOM     13  C   UNL d   1     -18.864  -4.341 -28.266  0.00  0.00     0.010 C 
ATOM     14  C   UNL d   1     -22.450  -3.588 -26.624  0.00  0.00     0.020 C 
ATOM     15  C   UNL d   1     -20.554  -2.329 -25.872  0.00  0.00     0.021 C 
ATOM     16  C   UNL d   1     -19.961  -3.368 -27.881  0.00  0.00     0.005 C 
ATOM     17  C   UNL d   1     -21.001  -1.125 -26.838  0.00  0.00     0.079 C 
ATOM     18  C   UNL d   1     -20.787  -2.732 -28.960  0.00  0.00     0.084 C 
ATOM     19  C   UNL d   1     -21.422  -1.509 -28.306  0.00  0.00     0.127 C 
ATOM     20  O   UNL d   1     -22.256  -0.844 -28.925  0.00  0.00    -0.298 OA
ENDROOT
BRANCH   1  21
ATOM     21  C   UNL d   1     -17.958  -6.740 -23.892  0.00  0.00    -0.014 C 
ATOM     22  C   UNL d   1     -16.858  -6.375 -24.900  0.00  0.00     0.010 C 
BRANCH  21  23
ATOM     23  C   UNL d   1     -17.317  -6.749 -22.500  0.00  0.00     0.005 C 
BRANCH  23  24
ATOM     24  C   UNL d   1     -16.038  -7.535 -22.221  0.00  0.00     0.001 C 
BRANCH  24  25
ATOM     25  C   UNL d   1     -16.204  -8.464 -21.041  0.00  0.00     0.004 C 
BRANCH  25  26
ATOM     26  C   UNL d   1     -17.488  -9.301 -21.122  0.00  0.00    -0.023 C 
ATOM     27  C   UNL d   1     -17.203 -10.517 -21.997  0.00  0.00     0.009 C 
ATOM     28  C   UNL d   1     -17.987  -9.739 -19.742  0.00  0.00     0.009 C 
ENDBRANCH  25  26
ENDBRANCH  24  25
ENDBRANCH  23  24
ENDBRANCH  21  23
ENDBRANCH   1  21
TORSDOF 5
ENDMDL
