MODEL 1
REMARK VINA RESULT:      -4.2      0.000      0.000
REMARK  2 active torsions:
REMARK  status: ('A' for Active; 'I' for Inactive)
REMARK    1  A    between atoms: C_2  and  O_1 
REMARK    2  A    between atoms: C_3  and  C_2 
ROOT
ATOM      1  C   UNL d   1      38.441  20.931  27.035  0.00  0.00     0.213 C 
ATOM      2  O   UNL d   1      39.024  19.868  27.013  0.00  0.00    -0.644 OA
ENDROOT
BRANCH   1   3
ATOM      3  C   UNL d   1      37.404  21.298  28.091  0.00  0.00     0.218 C 
ATOM      4  C   UNL d   1      36.613  20.173  28.681  0.00  0.00     0.103 C 
ATOM      5  O   UNL d   1      37.285  22.484  28.386  0.00  0.00    -0.286 OA
ENDBRANCH   1   3
BRANCH   1   6
ATOM      6  O   UNL d   1      38.600  21.943  26.160  0.00  0.00    -0.771 OA
ATOM      7  H   UNL d   1      38.632  21.575  25.244  0.00  0.00     0.168 HD
ENDBRANCH   1   6
TORSDOF 2
ENDMDL
MODEL 2
REMARK VINA RESULT:      -4.1      1.224      2.704
REMARK  2 active torsions:
REMARK  status: ('A' for Active; 'I' for Inactive)
REMARK    1  A    between atoms: C_2  and  O_1 
REMARK    2  A    between atoms: C_3  and  C_2 
ROOT
ATOM      1  C   UNL d   1      37.102  21.364  28.194  0.00  0.00     0.213 C 
ATOM      2  O   UNL d   1      37.139  22.516  28.572  0.00  0.00    -0.644 OA
ENDROOT
BRANCH   1   3
ATOM      3  C   UNL d   1      38.084  20.781  27.183  0.00  0.00     0.218 C 
ATOM      4  C   UNL d   1      38.033  19.301  26.968  0.00  0.00     0.103 C 
ATOM      5  O   UNL d   1      38.847  21.558  26.616  0.00  0.00    -0.286 OA
ENDBRANCH   1   3
BRANCH   1   6
ATOM      6  O   UNL d   1      36.218  20.428  28.587  0.00  0.00    -0.771 OA
ATOM      7  H   UNL d   1      36.678  19.557  28.652  0.00  0.00     0.168 HD
ENDBRANCH   1   6
TORSDOF 2
ENDMDL
MODEL 3
REMARK VINA RESULT:      -4.0     65.762     66.672
REMARK  2 active torsions:
REMARK  status: ('A' for Active; 'I' for Inactive)
REMARK    1  A    between atoms: C_2  and  O_1 
REMARK    2  A    between atoms: C_3  and  C_2 
ROOT
ATOM      1  C   UNL d   1      37.575 -28.731 -17.455  0.00  0.00     0.213 C 
ATOM      2  O   UNL d   1      36.669 -28.440 -18.206  0.00  0.00    -0.644 OA
ENDROOT
BRANCH   1   3
ATOM      3  C   UNL d   1      38.650 -27.743 -17.014  0.00  0.00     0.218 C 
ATOM      4  C   UNL d   1      39.040 -27.768 -15.570  0.00  0.00     0.103 C 
ATOM      5  O   UNL d   1      39.120 -26.994 -17.867  0.00  0.00    -0.286 OA
ENDBRANCH   1   3
BRANCH   1   6
ATOM      6  O   UNL d   1      37.787 -29.938 -16.895  0.00  0.00    -0.771 OA
ATOM      7  H   UNL d   1      38.461 -29.848 -16.179  0.00  0.00     0.168 HD
ENDBRANCH   1   6
TORSDOF 2
ENDMDL
MODEL 4
REMARK VINA RESULT:      -3.9     65.469     66.171
REMARK  2 active torsions:
REMARK  status: ('A' for Active; 'I' for Inactive)
REMARK    1  A    between atoms: C_2  and  O_1 
REMARK    2  A    between atoms: C_3  and  C_2 
ROOT
ATOM      1  C   UNL d   1      38.888 -27.404 -17.047  0.00  0.00     0.213 C 
ATOM      2  O   UNL d   1      39.515 -27.704 -16.053  0.00  0.00    -0.644 OA
ENDROOT
BRANCH   1   3
ATOM      3  C   UNL d   1      37.461 -27.872 -17.311  0.00  0.00     0.218 C 
ATOM      4  C   UNL d   1      36.366 -27.124 -16.617  0.00  0.00     0.103 C 
ATOM      5  O   UNL d   1      37.304 -28.825 -18.068  0.00  0.00    -0.286 OA
ENDBRANCH   1   3
BRANCH   1   6
ATOM      6  O   UNL d   1      39.326 -26.631 -18.059  0.00  0.00    -0.771 OA
ATOM      7  H   UNL d   1      40.305 -26.731 -18.141  0.00  0.00     0.168 HD
ENDBRANCH   1   6
TORSDOF 2
ENDMDL
MODEL 5
REMARK VINA RESULT:      -3.8     65.247     65.826
REMARK  2 active torsions:
REMARK  status: ('A' for Active; 'I' for Inactive)
REMARK    1  A    between atoms: C_2  and  O_1 
REMARK    2  A    between atoms: C_3  and  C_2 
ROOT
ATOM      1  C   UNL d   1      37.444 -20.422 -23.267  0.00  0.00     0.213 C 
ATOM      2  O   UNL d   1      38.086 -20.360 -22.239  0.00  0.00    -0.644 OA
ENDROOT
BRANCH   1   3
ATOM      3  C   UNL d   1      35.939 -20.664 -23.303  0.00  0.00     0.218 C 
ATOM      4  C   UNL d   1      35.482 -22.002 -23.791  0.00  0.00     0.103 C 
ATOM      5  O   UNL d   1      35.206 -19.751 -22.934  0.00  0.00    -0.286 OA
ENDBRANCH   1   3
BRANCH   1   6
ATOM      6  O   UNL d   1      37.931 -20.290 -24.516  0.00  0.00    -0.771 OA
ATOM      7  H   UNL d   1      38.130 -19.339 -24.686  0.00  0.00     0.168 HD
ENDBRANCH   1   6
TORSDOF 2
ENDMDL
MODEL 6
REMARK VINA RESULT:      -3.6     64.486     65.376
REMARK  2 active torsions:
REMARK  status: ('A' for Active; 'I' for Inactive)
REMARK    1  A    between atoms: C_2  and  O_1 
REMARK    2  A    between atoms: C_3  and  C_2 
ROOT
ATOM      1  C   UNL d   1      38.436 -27.266 -17.262  0.00  0.00     0.213 C 
ATOM      2  O   UNL d   1      39.276 -26.630 -17.863  0.00  0.00    -0.644 OA
ENDROOT
BRANCH   1   3
ATOM      3  C   UNL d   1      37.981 -26.927 -15.846  0.00  0.00     0.218 C 
ATOM      4  C   UNL d   1      39.043 -26.858 -14.794  0.00  0.00     0.103 C 
ATOM      5  O   UNL d   1      36.782 -26.738 -15.663  0.00  0.00    -0.286 OA
ENDBRANCH   1   3
BRANCH   1   6
ATOM      6  O   UNL d   1      37.777 -28.346 -17.724  0.00  0.00    -0.771 OA
ATOM      7  H   UNL d   1      37.380 -28.130 -18.601  0.00  0.00     0.168 HD
ENDBRANCH   1   6
TORSDOF 2
ENDMDL
MODEL 7
REMARK VINA RESULT:      -3.6      1.560      2.336
REMARK  2 active torsions:
REMARK  status: ('A' for Active; 'I' for Inactive)
REMARK    1  A    between atoms: C_2  and  O_1 
REMARK    2  A    between atoms: C_3  and  C_2 
ROOT
ATOM      1  C   UNL d   1      38.457  21.119  27.394  0.00  0.00     0.213 C 
ATOM      2  O   UNL d   1      39.206  21.516  26.527  0.00  0.00    -0.644 OA
ENDROOT
BRANCH   1   3
ATOM      3  C   UNL d   1      38.434  19.675  27.885  0.00  0.00     0.218 C 
ATOM      4  C   UNL d   1      39.095  18.654  27.014  0.00  0.00     0.103 C 
ATOM      5  O   UNL d   1      37.876  19.446  28.954  0.00  0.00    -0.286 OA
ENDBRANCH   1   3
BRANCH   1   6
ATOM      6  O   UNL d   1      37.545  21.856  28.055  0.00  0.00    -0.771 OA
ATOM      7  H   UNL d   1      36.705  21.343  28.127  0.00  0.00     0.168 HD
ENDBRANCH   1   6
TORSDOF 2
ENDMDL
MODEL 8
REMARK VINA RESULT:      -3.5      3.336      4.285
REMARK  2 active torsions:
REMARK  status: ('A' for Active; 'I' for Inactive)
REMARK    1  A    between atoms: C_2  and  O_1 
REMARK    2  A    between atoms: C_3  and  C_2 
ROOT
ATOM      1  C   UNL d   1      37.744  17.419  27.522  0.00  0.00     0.213 C 
ATOM      2  O   UNL d   1      37.263  16.374  27.137  0.00  0.00    -0.644 OA
ENDROOT
BRANCH   1   3
ATOM      3  C   UNL d   1      38.942  18.086  26.855  0.00  0.00     0.218 C 
ATOM      4  C   UNL d   1      39.221  19.507  27.232  0.00  0.00     0.103 C 
ATOM      5  O   UNL d   1      39.595  17.419  26.057  0.00  0.00    -0.286 OA
ENDBRANCH   1   3
BRANCH   1   6
ATOM      6  O   UNL d   1      37.319  18.151  28.569  0.00  0.00    -0.771 OA
ATOM      7  H   UNL d   1      36.341  18.272  28.503  0.00  0.00     0.168 HD
ENDBRANCH   1   6
TORSDOF 2
ENDMDL
MODEL 9
REMARK VINA RESULT:      -3.3     20.339     21.151
REMARK  2 active torsions:
REMARK  status: ('A' for Active; 'I' for Inactive)
REMARK    1  A    between atoms: C_2  and  O_1 
REMARK    2  A    between atoms: C_3  and  C_2 
ROOT
ATOM      1  C   UNL d   1      18.550  15.140  34.206  0.00  0.00     0.213 C 
ATOM      2  O   UNL d   1      17.490  14.554  34.264  0.00  0.00    -0.644 OA
ENDROOT
BRANCH   1   3
ATOM      3  C   UNL d   1      19.395  15.468  35.433  0.00  0.00     0.218 C 
ATOM      4  C   UNL d   1      18.710  15.409  36.761  0.00  0.00     0.103 C 
ATOM      5  O   UNL d   1      20.574  15.759  35.251  0.00  0.00    -0.286 OA
ENDBRANCH   1   3
BRANCH   1   6
ATOM      6  O   UNL d   1      19.149  15.589  33.087  0.00  0.00    -0.771 OA
ATOM      7  H   UNL d   1      20.111  15.722  33.267  0.00  0.00     0.168 HD
ENDBRANCH   1   6
TORSDOF 2
ENDMDL
