MODEL 1
REMARK VINA RESULT:      -3.0      0.000      0.000
REMARK  2 active torsions:
REMARK  status: ('A' for Active; 'I' for Inactive)
REMARK    1  A    between atoms: O_1  and  C_2 
REMARK    2  A    between atoms: C_2  and  C_3 
ROOT
ATOM      1  C   UNL d   1     -18.624  34.957  33.785  0.00  0.00     0.233 C 
ENDROOT
BRANCH   1   2
ATOM      2  O   UNL d   1     -19.473  35.798  33.024  0.00  0.00    -0.394 OA
ATOM      3  H   UNL d   1     -20.179  36.105  33.622  0.00  0.00     0.209 HD
ENDBRANCH   1   2
BRANCH   1   4
ATOM      4  C   UNL d   1     -18.640  33.554  33.221  0.00  0.00     0.256 C 
ATOM      5  O   UNL d   1     -19.329  32.649  33.685  0.00  0.00    -0.305 OA
ENDBRANCH   1   4
TORSDOF 2
ENDMDL
MODEL 2
REMARK VINA RESULT:      -2.8      2.796      2.796
REMARK  2 active torsions:
REMARK  status: ('A' for Active; 'I' for Inactive)
REMARK    1  A    between atoms: O_1  and  C_2 
REMARK    2  A    between atoms: C_2  and  C_3 
ROOT
ATOM      1  C   UNL d   1     -17.740  34.348  34.012  0.00  0.00     0.233 C 
ENDROOT
BRANCH   1   2
ATOM      2  O   UNL d   1     -16.956  34.928  32.985  0.00  0.00    -0.394 OA
ATOM      3  H   UNL d   1     -16.495  34.199  32.533  0.00  0.00     0.209 HD
ENDBRANCH   1   2
BRANCH   1   4
ATOM      4  C   UNL d   1     -16.857  33.588  34.975  0.00  0.00     0.256 C 
ATOM      5  O   UNL d   1     -15.642  33.761  35.055  0.00  0.00    -0.305 OA
ENDBRANCH   1   4
TORSDOF 2
ENDMDL
MODEL 3
REMARK VINA RESULT:      -2.8      1.644      3.064
REMARK  2 active torsions:
REMARK  status: ('A' for Active; 'I' for Inactive)
REMARK    1  A    between atoms: O_1  and  C_2 
REMARK    2  A    between atoms: C_2  and  C_3 
ROOT
ATOM      1  C   UNL d   1     -18.078  31.669  33.331  0.00  0.00     0.233 C 
ENDROOT
BRANCH   1   2
ATOM      2  O   UNL d   1     -18.858  31.062  34.346  0.00  0.00    -0.394 OA
ATOM      3  H   UNL d   1     -19.763  30.976  33.996  0.00  0.00     0.209 HD
ENDBRANCH   1   2
BRANCH   1   4
ATOM      4  C   UNL d   1     -18.622  33.041  33.006  0.00  0.00     0.256 C 
ATOM      5  O   UNL d   1     -19.108  33.791  33.851  0.00  0.00    -0.305 OA
ENDBRANCH   1   4
TORSDOF 2
ENDMDL
MODEL 4
REMARK VINA RESULT:      -2.6     25.305     25.577
REMARK  2 active torsions:
REMARK  status: ('A' for Active; 'I' for Inactive)
REMARK    1  A    between atoms: O_1  and  C_2 
REMARK    2  A    between atoms: C_2  and  C_3 
ROOT
ATOM      1  C   UNL d   1       5.567  28.205  33.636  0.00  0.00     0.233 C 
ENDROOT
BRANCH   1   2
ATOM      2  O   UNL d   1       4.505  29.144  33.642  0.00  0.00    -0.394 OA
ATOM      3  H   UNL d   1       3.676  28.635  33.678  0.00  0.00     0.209 HD
ENDBRANCH   1   2
BRANCH   1   4
ATOM      4  C   UNL d   1       5.935  27.828  35.053  0.00  0.00     0.256 C 
ATOM      5  O   UNL d   1       7.058  27.451  35.379  0.00  0.00    -0.305 OA
ENDBRANCH   1   4
TORSDOF 2
ENDMDL
MODEL 5
REMARK VINA RESULT:      -2.6     26.487     26.916
REMARK  2 active torsions:
REMARK  status: ('A' for Active; 'I' for Inactive)
REMARK    1  A    between atoms: O_1  and  C_2 
REMARK    2  A    between atoms: C_2  and  C_3 
ROOT
ATOM      1  C   UNL d   1       5.510  25.869  34.547  0.00  0.00     0.233 C 
ENDROOT
BRANCH   1   2
ATOM      2  O   UNL d   1       5.953  24.553  34.829  0.00  0.00    -0.394 OA
ATOM      3  H   UNL d   1       5.157  24.001  34.930  0.00  0.00     0.209 HD
ENDBRANCH   1   2
BRANCH   1   4
ATOM      4  C   UNL d   1       6.576  26.870  34.929  0.00  0.00     0.256 C 
ATOM      5  O   UNL d   1       7.778  26.613  34.916  0.00  0.00    -0.305 OA
ENDBRANCH   1   4
TORSDOF 2
ENDMDL
MODEL 6
REMARK VINA RESULT:      -2.4      9.700      9.879
REMARK  2 active torsions:
REMARK  status: ('A' for Active; 'I' for Inactive)
REMARK    1  A    between atoms: O_1  and  C_2 
REMARK    2  A    between atoms: C_2  and  C_3 
ROOT
ATOM      1  C   UNL d   1     -10.990  34.046  28.540  0.00  0.00     0.233 C 
ENDROOT
BRANCH   1   2
ATOM      2  O   UNL d   1     -11.786  35.041  29.159  0.00  0.00    -0.394 OA
ATOM      3  H   UNL d   1     -12.596  35.129  28.625  0.00  0.00     0.209 HD
ENDBRANCH   1   2
BRANCH   1   4
ATOM      4  C   UNL d   1      -9.558  34.157  29.011  0.00  0.00     0.256 C 
ATOM      5  O   UNL d   1      -9.091  35.178  29.513  0.00  0.00    -0.305 OA
ENDBRANCH   1   4
TORSDOF 2
ENDMDL
MODEL 7
REMARK VINA RESULT:      -2.2     32.518     33.457
REMARK  2 active torsions:
REMARK  status: ('A' for Active; 'I' for Inactive)
REMARK    1  A    between atoms: O_1  and  C_2 
REMARK    2  A    between atoms: C_2  and  C_3 
ROOT
ATOM      1  C   UNL d   1       1.660   7.268  37.792  0.00  0.00     0.233 C 
ENDROOT
BRANCH   1   2
ATOM      2  O   UNL d   1       2.896   7.962  37.825  0.00  0.00    -0.394 OA
ATOM      3  H   UNL d   1       3.359   7.756  36.994  0.00  0.00     0.209 HD
ENDBRANCH   1   2
BRANCH   1   4
ATOM      4  C   UNL d   1       0.512   8.246  37.897  0.00  0.00     0.256 C 
ATOM      5  O   UNL d   1       0.668   9.462  37.980  0.00  0.00    -0.305 OA
ENDBRANCH   1   4
TORSDOF 2
ENDMDL
MODEL 8
REMARK VINA RESULT:      -2.2     32.754     33.647
REMARK  2 active torsions:
REMARK  status: ('A' for Active; 'I' for Inactive)
REMARK    1  A    between atoms: O_1  and  C_2 
REMARK    2  A    between atoms: C_2  and  C_3 
ROOT
ATOM      1  C   UNL d   1       0.642   8.314  37.918  0.00  0.00     0.233 C 
ENDROOT
BRANCH   1   2
ATOM      2  O   UNL d   1       1.206   9.304  38.761  0.00  0.00    -0.394 OA
ATOM      3  H   UNL d   1       1.609   8.838  39.516  0.00  0.00     0.209 HD
ENDBRANCH   1   2
BRANCH   1   4
ATOM      4  C   UNL d   1       1.628   7.188  37.706  0.00  0.00     0.256 C 
ATOM      5  O   UNL d   1       2.789   7.368  37.345  0.00  0.00    -0.305 OA
ENDBRANCH   1   4
TORSDOF 2
ENDMDL
MODEL 9
REMARK VINA RESULT:      -2.0     37.644     37.974
REMARK  2 active torsions:
REMARK  status: ('A' for Active; 'I' for Inactive)
REMARK    1  A    between atoms: O_1  and  C_2 
REMARK    2  A    between atoms: C_2  and  C_3 
ROOT
ATOM      1  C   UNL d   1      18.400  24.294  32.124  0.00  0.00     0.233 C 
ENDROOT
BRANCH   1   2
ATOM      2  O   UNL d   1      18.577  24.627  33.491  0.00  0.00    -0.394 OA
ATOM      3  H   UNL d   1      17.878  25.265  33.720  0.00  0.00     0.209 HD
ENDBRANCH   1   2
BRANCH   1   4
ATOM      4  C   UNL d   1      17.322  25.160  31.513  0.00  0.00     0.256 C 
ATOM      5  O   UNL d   1      16.648  25.956  32.163  0.00  0.00    -0.305 OA
ENDBRANCH   1   4
TORSDOF 2
ENDMDL
