MODEL 1
REMARK VINA RESULT:      -2.2      0.000      0.000
REMARK  13 active torsions:
REMARK  status: ('A' for Active; 'I' for Inactive)
REMARK    1  A    between atoms: C_2  and  O_1 
REMARK    2  A    between atoms: C_3  and  C_5 
REMARK    3  A    between atoms: C_4  and  O_7 
REMARK    4  A    between atoms: C_5  and  O_9 
REMARK    5  A    between atoms: C_8  and  C_11 
REMARK    6  A    between atoms: C_8  and  O_10 
REMARK    7  A    between atoms: O_9  and  P_12 
REMARK    8  A    between atoms: C_11  and  O_13 
REMARK    9  A    between atoms: P_12  and  O_15 
REMARK   10  A    between atoms: P_12  and  O_16 
REMARK   11  A    between atoms: O_13  and  P_17 
REMARK   12  A    between atoms: P_17  and  O_19 
REMARK   13  A    between atoms: P_17  and  O_20 
ROOT
ATOM      1  C   UNL d   1      23.865  36.515   7.466  0.00  0.00     0.183 C 
ATOM      2  C   UNL d   1      22.983  37.269   8.460  0.00  0.00     0.181 C 
ATOM      3  C   UNL d   1      25.154  36.238   8.237  0.00  0.00     0.213 C 
ATOM      4  O   UNL d   1      23.877  37.980   9.336  0.00  0.00    -0.341 OA
ATOM      5  C   UNL d   1      25.136  37.303   9.373  0.00  0.00     0.213 C 
ENDROOT
BRANCH   5   6
ATOM      6  C   UNL d   1      25.327  36.774  10.793  0.00  0.00     0.251 C 
BRANCH   6   7
ATOM      7  O   UNL d   1      25.579  37.826  11.709  0.00  0.00    -0.292 OA
BRANCH   7   8
ATOM      8  P   UNL d   1      24.456  38.122  12.805  0.00  0.00     0.390 P 
ATOM      9  O   UNL d   1      24.058  36.989  13.680  0.00  0.00    -0.632 OA
BRANCH   8  10
ATOM     10  O   UNL d   1      25.040  39.364  13.624  0.00  0.00    -0.307 OA
ATOM     11  H   UNL d   1      24.362  39.684  14.243  0.00  0.00     0.222 HD
ENDBRANCH   8  10
BRANCH   8  12
ATOM     12  O   UNL d   1      23.274  38.765  11.965  0.00  0.00    -0.307 OA
ATOM     13  H   UNL d   1      22.472  38.223  12.003  0.00  0.00     0.222 HD
ENDBRANCH   8  12
ENDBRANCH   7   8
ENDBRANCH   6   7
ENDBRANCH   5   6
BRANCH   5  14
ATOM     14  O   UNL d   1      26.133  38.291   9.133  0.00  0.00    -0.362 OA
ATOM     15  H   UNL d   1      26.019  38.957   9.829  0.00  0.00     0.213 HD
ENDBRANCH   5  14
BRANCH   3  16
ATOM     16  O   UNL d   1      25.196  34.860   8.614  0.00  0.00    -0.387 OA
ATOM     17  H   UNL d   1      25.686  34.725   9.439  0.00  0.00     0.210 HD
ENDBRANCH   3  16
BRANCH   1  18
ATOM     18  O   UNL d   1      24.158  37.360   6.348  0.00  0.00    -0.390 OA
ATOM     19  H   UNL d   1      23.472  38.052   6.319  0.00  0.00     0.210 HD
ENDBRANCH   1  18
BRANCH   2  20
ATOM     20  C   UNL d   1      22.097  36.343   9.305  0.00  0.00     0.215 C 
BRANCH  20  21
ATOM     21  O   UNL d   1      21.632  37.055  10.451  0.00  0.00    -0.294 OA
BRANCH  21  22
ATOM     22  P   UNL d   1      20.573  36.129  11.459  0.00  0.00     0.390 P 
ATOM     23  O   UNL d   1      19.625  35.302  12.362  0.00  0.00    -0.632 OA
BRANCH  22  24
ATOM     24  O   UNL d   1      21.076  37.048  12.713  0.00  0.00    -0.307 OA
ATOM     25  H   UNL d   1      20.639  37.917  12.602  0.00  0.00     0.222 HD
ENDBRANCH  22  24
BRANCH  22  26
ATOM     26  O   UNL d   1      19.408  37.171  10.978  0.00  0.00    -0.307 OA
ATOM     27  H   UNL d   1      19.752  38.074  11.104  0.00  0.00     0.222 HD
ENDBRANCH  22  26
ENDBRANCH  21  22
ENDBRANCH  20  21
ENDBRANCH   2  20
TORSDOF 13
ENDMDL
MODEL 2
REMARK VINA RESULT:      -1.8     16.118     18.356
REMARK  13 active torsions:
REMARK  status: ('A' for Active; 'I' for Inactive)
REMARK    1  A    between atoms: C_2  and  O_1 
REMARK    2  A    between atoms: C_3  and  C_5 
REMARK    3  A    between atoms: C_4  and  O_7 
REMARK    4  A    between atoms: C_5  and  O_9 
REMARK    5  A    between atoms: C_8  and  C_11 
REMARK    6  A    between atoms: C_8  and  O_10 
REMARK    7  A    between atoms: O_9  and  P_12 
REMARK    8  A    between atoms: C_11  and  O_13 
REMARK    9  A    between atoms: P_12  and  O_15 
REMARK   10  A    between atoms: P_12  and  O_16 
REMARK   11  A    between atoms: O_13  and  P_17 
REMARK   12  A    between atoms: P_17  and  O_19 
REMARK   13  A    between atoms: P_17  and  O_20 
ROOT
ATOM      1  C   UNL d   1      24.492  31.171  24.490  0.00  0.00     0.183 C 
ATOM      2  C   UNL d   1      24.034  30.547  25.807  0.00  0.00     0.181 C 
ATOM      3  C   UNL d   1      25.216  32.449  24.908  0.00  0.00     0.213 C 
ATOM      4  O   UNL d   1      23.831  31.638  26.723  0.00  0.00    -0.341 OA
ATOM      5  C   UNL d   1      24.650  32.742  26.329  0.00  0.00     0.213 C 
ENDROOT
BRANCH   5   6
ATOM      6  C   UNL d   1      25.683  32.960  27.432  0.00  0.00     0.251 C 
BRANCH   6   7
ATOM      7  O   UNL d   1      25.086  32.925  28.717  0.00  0.00    -0.292 OA
BRANCH   7   8
ATOM      8  P   UNL d   1      26.052  33.110  29.975  0.00  0.00     0.390 P 
ATOM      9  O   UNL d   1      26.853  34.360  30.028  0.00  0.00    -0.632 OA
BRANCH   8  10
ATOM     10  O   UNL d   1      25.078  32.943  31.231  0.00  0.00    -0.307 OA
ATOM     11  H   UNL d   1      25.612  32.877  32.041  0.00  0.00     0.222 HD
ENDBRANCH   8  10
BRANCH   8  12
ATOM     12  O   UNL d   1      26.902  31.770  29.993  0.00  0.00    -0.307 OA
ATOM     13  H   UNL d   1      27.418  31.663  29.181  0.00  0.00     0.222 HD
ENDBRANCH   8  12
ENDBRANCH   7   8
ENDBRANCH   6   7
ENDBRANCH   5   6
BRANCH   5  14
ATOM     14  O   UNL d   1      23.799  33.883  26.291  0.00  0.00    -0.362 OA
ATOM     15  H   UNL d   1      23.481  34.006  27.199  0.00  0.00     0.213 HD
ENDBRANCH   5  14
BRANCH   3  16
ATOM     16  O   UNL d   1      26.627  32.261  24.777  0.00  0.00    -0.387 OA
ATOM     17  H   UNL d   1      26.867  31.929  23.899  0.00  0.00     0.210 HD
ENDBRANCH   3  16
BRANCH   1  18
ATOM     18  O   UNL d   1      23.348  31.516  23.700  0.00  0.00    -0.390 OA
ATOM     19  H   UNL d   1      23.600  31.412  22.764  0.00  0.00     0.210 HD
ENDBRANCH   1  18
BRANCH   2  20
ATOM     20  C   UNL d   1      25.065  29.582  26.409  0.00  0.00     0.215 C 
BRANCH  20  21
ATOM     21  O   UNL d   1      24.814  29.438  27.807  0.00  0.00    -0.294 OA
BRANCH  21  22
ATOM     22  P   UNL d   1      25.686  28.134  28.537  0.00  0.00     0.390 P 
ATOM     23  O   UNL d   1      26.466  26.968  29.190  0.00  0.00    -0.632 OA
BRANCH  22  24
ATOM     24  O   UNL d   1      26.341  27.841  27.070  0.00  0.00    -0.307 OA
ATOM     25  H   UNL d   1      26.328  26.869  26.959  0.00  0.00     0.222 HD
ENDBRANCH  22  24
BRANCH  22  26
ATOM     26  O   UNL d   1      26.784  29.270  28.960  0.00  0.00    -0.307 OA
ATOM     27  H   UNL d   1      26.773  29.339  29.932  0.00  0.00     0.222 HD
ENDBRANCH  22  26
ENDBRANCH  21  22
ENDBRANCH  20  21
ENDBRANCH   2  20
TORSDOF 13
ENDMDL
MODEL 3
REMARK VINA RESULT:      -1.8     16.892     19.068
REMARK  13 active torsions:
REMARK  status: ('A' for Active; 'I' for Inactive)
REMARK    1  A    between atoms: C_2  and  O_1 
REMARK    2  A    between atoms: C_3  and  C_5 
REMARK    3  A    between atoms: C_4  and  O_7 
REMARK    4  A    between atoms: C_5  and  O_9 
REMARK    5  A    between atoms: C_8  and  C_11 
REMARK    6  A    between atoms: C_8  and  O_10 
REMARK    7  A    between atoms: O_9  and  P_12 
REMARK    8  A    between atoms: C_11  and  O_13 
REMARK    9  A    between atoms: P_12  and  O_15 
REMARK   10  A    between atoms: P_12  and  O_16 
REMARK   11  A    between atoms: O_13  and  P_17 
REMARK   12  A    between atoms: P_17  and  O_19 
REMARK   13  A    between atoms: P_17  and  O_20 
ROOT
ATOM      1  C   UNL d   1      23.260  30.412  25.967  0.00  0.00     0.183 C 
ATOM      2  C   UNL d   1      23.065  30.592  27.472  0.00  0.00     0.181 C 
ATOM      3  C   UNL d   1      24.424  31.338  25.621  0.00  0.00     0.213 C 
ATOM      4  O   UNL d   1      23.491  31.933  27.777  0.00  0.00    -0.341 OA
ATOM      5  C   UNL d   1      24.438  32.361  26.796  0.00  0.00     0.213 C 
ENDROOT
BRANCH   5   6
ATOM      6  C   UNL d   1      25.777  32.549  27.506  0.00  0.00     0.251 C 
BRANCH   6   7
ATOM      7  O   UNL d   1      25.864  33.824  28.120  0.00  0.00    -0.292 OA
BRANCH   7   8
ATOM      8  P   UNL d   1      26.326  33.868  29.647  0.00  0.00     0.390 P 
ATOM      9  O   UNL d   1      25.958  32.703  30.493  0.00  0.00    -0.632 OA
BRANCH   8  10
ATOM     10  O   UNL d   1      27.904  34.100  29.562  0.00  0.00    -0.307 OA
ATOM     11  H   UNL d   1      28.244  34.304  30.450  0.00  0.00     0.222 HD
ENDBRANCH   8  10
BRANCH   8  12
ATOM     12  O   UNL d   1      25.780  35.266  30.163  0.00  0.00    -0.307 OA
ATOM     13  H   UNL d   1      26.492  35.819  30.518  0.00  0.00     0.222 HD
ENDBRANCH   8  12
ENDBRANCH   7   8
ENDBRANCH   6   7
ENDBRANCH   5   6
BRANCH   5  14
ATOM     14  O   UNL d   1      23.999  33.635  26.338  0.00  0.00    -0.362 OA
ATOM     15  H   UNL d   1      24.798  34.182  26.271  0.00  0.00     0.213 HD
ENDBRANCH   5  14
BRANCH   3  16
ATOM     16  O   UNL d   1      25.601  30.558  25.401  0.00  0.00    -0.387 OA
ATOM     17  H   UNL d   1      25.449  29.845  24.763  0.00  0.00     0.210 HD
ENDBRANCH   3  16
BRANCH   1  18
ATOM     18  O   UNL d   1      22.085  30.855  25.276  0.00  0.00    -0.390 OA
ATOM     19  H   UNL d   1      21.679  31.558  25.815  0.00  0.00     0.210 HD
ENDBRANCH   1  18
BRANCH   2  20
ATOM     20  C   UNL d   1      23.894  29.609  28.310  0.00  0.00     0.215 C 
BRANCH  20  21
ATOM     21  O   UNL d   1      24.112  30.164  29.606  0.00  0.00    -0.294 OA
BRANCH  21  22
ATOM     22  P   UNL d   1      24.719  29.022  30.756  0.00  0.00     0.390 P 
ATOM     23  O   UNL d   1      25.263  28.001  31.785  0.00  0.00    -0.632 OA
BRANCH  22  24
ATOM     24  O   UNL d   1      24.814  27.944  29.534  0.00  0.00    -0.307 OA
ATOM     25  H   UNL d   1      25.717  27.569  29.575  0.00  0.00     0.222 HD
ENDBRANCH  22  24
BRANCH  22  26
ATOM     26  O   UNL d   1      26.181  29.696  30.467  0.00  0.00    -0.307 OA
ATOM     27  H   UNL d   1      26.481  30.109  31.297  0.00  0.00     0.222 HD
ENDBRANCH  22  26
ENDBRANCH  21  22
ENDBRANCH  20  21
ENDBRANCH   2  20
TORSDOF 13
ENDMDL
MODEL 4
REMARK VINA RESULT:      -1.6     19.893     21.949
REMARK  13 active torsions:
REMARK  status: ('A' for Active; 'I' for Inactive)
REMARK    1  A    between atoms: C_2  and  O_1 
REMARK    2  A    between atoms: C_3  and  C_5 
REMARK    3  A    between atoms: C_4  and  O_7 
REMARK    4  A    between atoms: C_5  and  O_9 
REMARK    5  A    between atoms: C_8  and  C_11 
REMARK    6  A    between atoms: C_8  and  O_10 
REMARK    7  A    between atoms: O_9  and  P_12 
REMARK    8  A    between atoms: C_11  and  O_13 
REMARK    9  A    between atoms: P_12  and  O_15 
REMARK   10  A    between atoms: P_12  and  O_16 
REMARK   11  A    between atoms: O_13  and  P_17 
REMARK   12  A    between atoms: P_17  and  O_19 
REMARK   13  A    between atoms: P_17  and  O_20 
ROOT
ATOM      1  C   UNL d   1      25.555  25.952  26.890  0.00  0.00     0.183 C 
ATOM      2  C   UNL d   1      24.888  25.240  28.066  0.00  0.00     0.181 C 
ATOM      3  C   UNL d   1      25.842  27.359  27.410  0.00  0.00     0.213 C 
ATOM      4  O   UNL d   1      24.208  26.259  28.821  0.00  0.00    -0.341 OA
ATOM      5  C   UNL d   1      24.850  27.517  28.600  0.00  0.00     0.213 C 
ENDROOT
BRANCH   5   6
ATOM      6  C   UNL d   1      25.460  27.958  29.929  0.00  0.00     0.251 C 
BRANCH   6   7
ATOM      7  O   UNL d   1      26.251  29.124  29.775  0.00  0.00    -0.292 OA
BRANCH   7   8
ATOM      8  P   UNL d   1      25.849  30.398  30.650  0.00  0.00     0.390 P 
ATOM      9  O   UNL d   1      25.921  30.248  32.126  0.00  0.00    -0.632 OA
BRANCH   8  10
ATOM     10  O   UNL d   1      26.800  31.557  30.096  0.00  0.00    -0.307 OA
ATOM     11  H   UNL d   1      26.729  32.332  30.679  0.00  0.00     0.222 HD
ENDBRANCH   8  10
BRANCH   8  12
ATOM     12  O   UNL d   1      24.421  30.802  30.089  0.00  0.00    -0.307 OA
ATOM     13  H   UNL d   1      24.463  31.064  29.157  0.00  0.00     0.222 HD
ENDBRANCH   8  12
ENDBRANCH   7   8
ENDBRANCH   6   7
ENDBRANCH   5   6
BRANCH   5  14
ATOM     14  O   UNL d   1      23.821  28.441  28.259  0.00  0.00    -0.362 OA
ATOM     15  H   UNL d   1      23.881  28.560  27.298  0.00  0.00     0.213 HD
ENDBRANCH   5  14
BRANCH   3  16
ATOM     16  O   UNL d   1      27.239  27.488  27.683  0.00  0.00    -0.387 OA
ATOM     17  H   UNL d   1      27.512  28.416  27.737  0.00  0.00     0.210 HD
ENDBRANCH   3  16
BRANCH   1  18
ATOM     18  O   UNL d   1      24.634  26.034  25.795  0.00  0.00    -0.390 OA
ATOM     19  H   UNL d   1      24.075  25.236  25.826  0.00  0.00     0.210 HD
ENDBRANCH   1  18
BRANCH   2  20
ATOM     20  C   UNL d   1      25.889  24.529  28.986  0.00  0.00     0.215 C 
BRANCH  20  21
ATOM     21  O   UNL d   1      25.258  23.394  29.579  0.00  0.00    -0.294 OA
BRANCH  21  22
ATOM     22  P   UNL d   1      25.551  23.246  31.278  0.00  0.00     0.390 P 
ATOM     23  O   UNL d   1      25.812  23.115  32.798  0.00  0.00    -0.632 OA
BRANCH  22  24
ATOM     24  O   UNL d   1      27.006  23.938  31.018  0.00  0.00    -0.307 OA
ATOM     25  H   UNL d   1      27.570  23.241  30.624  0.00  0.00     0.222 HD
ENDBRANCH  22  24
BRANCH  22  26
ATOM     26  O   UNL d   1      24.742  24.661  31.414  0.00  0.00    -0.307 OA
ATOM     27  H   UNL d   1      24.799  24.941  32.346  0.00  0.00     0.222 HD
ENDBRANCH  22  26
ENDBRANCH  21  22
ENDBRANCH  20  21
ENDBRANCH   2  20
TORSDOF 13
ENDMDL
MODEL 5
REMARK VINA RESULT:      -1.4      2.807      3.631
REMARK  13 active torsions:
REMARK  status: ('A' for Active; 'I' for Inactive)
REMARK    1  A    between atoms: C_2  and  O_1 
REMARK    2  A    between atoms: C_3  and  C_5 
REMARK    3  A    between atoms: C_4  and  O_7 
REMARK    4  A    between atoms: C_5  and  O_9 
REMARK    5  A    between atoms: C_8  and  C_11 
REMARK    6  A    between atoms: C_8  and  O_10 
REMARK    7  A    between atoms: O_9  and  P_12 
REMARK    8  A    between atoms: C_11  and  O_13 
REMARK    9  A    between atoms: P_12  and  O_15 
REMARK   10  A    between atoms: P_12  and  O_16 
REMARK   11  A    between atoms: O_13  and  P_17 
REMARK   12  A    between atoms: P_17  and  O_19 
REMARK   13  A    between atoms: P_17  and  O_20 
ROOT
ATOM      1  C   UNL d   1      23.666  37.913   5.798  0.00  0.00     0.183 C 
ATOM      2  C   UNL d   1      22.339  38.219   6.491  0.00  0.00     0.181 C 
ATOM      3  C   UNL d   1      24.700  37.953   6.921  0.00  0.00     0.213 C 
ATOM      4  O   UNL d   1      22.656  39.051   7.621  0.00  0.00    -0.341 OA
ATOM      5  C   UNL d   1      24.004  38.802   8.027  0.00  0.00     0.213 C 
ENDROOT
BRANCH   5   6
ATOM      6  C   UNL d   1      23.953  38.177   9.420  0.00  0.00     0.251 C 
BRANCH   6   7
ATOM      7  O   UNL d   1      24.496  39.047  10.399  0.00  0.00    -0.292 OA
BRANCH   7   8
ATOM      8  P   UNL d   1      24.571  38.502  11.897  0.00  0.00     0.390 P 
ATOM      9  O   UNL d   1      25.407  37.296  12.132  0.00  0.00    -0.632 OA
BRANCH   8  10
ATOM     10  O   UNL d   1      25.058  39.769  12.741  0.00  0.00    -0.307 OA
ATOM     11  H   UNL d   1      24.769  40.581  12.290  0.00  0.00     0.222 HD
ENDBRANCH   8  10
BRANCH   8  12
ATOM     12  O   UNL d   1      23.048  38.350  12.316  0.00  0.00    -0.307 OA
ATOM     13  H   UNL d   1      22.621  37.615  11.852  0.00  0.00     0.222 HD
ENDBRANCH   8  12
ENDBRANCH   7   8
ENDBRANCH   6   7
ENDBRANCH   5   6
BRANCH   5  14
ATOM     14  O   UNL d   1      24.635  40.073   8.137  0.00  0.00    -0.362 OA
ATOM     15  H   UNL d   1      23.948  40.683   8.448  0.00  0.00     0.213 HD
ENDBRANCH   5  14
BRANCH   3  16
ATOM     16  O   UNL d   1      25.094  36.620   7.252  0.00  0.00    -0.387 OA
ATOM     17  H   UNL d   1      25.347  36.538   8.183  0.00  0.00     0.210 HD
ENDBRANCH   3  16
BRANCH   1  18
ATOM     18  O   UNL d   1      23.961  38.947   4.851  0.00  0.00    -0.390 OA
ATOM     19  H   UNL d   1      24.767  39.402   5.159  0.00  0.00     0.210 HD
ENDBRANCH   1  18
BRANCH   2  20
ATOM     20  C   UNL d   1      21.617  36.961   6.991  0.00  0.00     0.215 C 
BRANCH  20  21
ATOM     21  O   UNL d   1      22.207  35.809   6.390  0.00  0.00    -0.294 OA
BRANCH  21  22
ATOM     22  P   UNL d   1      21.052  34.700   5.734  0.00  0.00     0.390 P 
ATOM     23  O   UNL d   1      20.018  33.709   5.146  0.00  0.00    -0.632 OA
BRANCH  22  24
ATOM     24  O   UNL d   1      19.892  35.570   6.484  0.00  0.00    -0.307 OA
ATOM     25  H   UNL d   1      19.963  36.479   6.126  0.00  0.00     0.222 HD
ENDBRANCH  22  24
BRANCH  22  26
ATOM     26  O   UNL d   1      21.095  35.641   4.397  0.00  0.00    -0.307 OA
ATOM     27  H   UNL d   1      20.955  35.061   3.626  0.00  0.00     0.222 HD
ENDBRANCH  22  26
ENDBRANCH  21  22
ENDBRANCH  20  21
ENDBRANCH   2  20
TORSDOF 13
ENDMDL
MODEL 6
REMARK VINA RESULT:      -1.3     18.362     20.156
REMARK  13 active torsions:
REMARK  status: ('A' for Active; 'I' for Inactive)
REMARK    1  A    between atoms: C_2  and  O_1 
REMARK    2  A    between atoms: C_3  and  C_5 
REMARK    3  A    between atoms: C_4  and  O_7 
REMARK    4  A    between atoms: C_5  and  O_9 
REMARK    5  A    between atoms: C_8  and  C_11 
REMARK    6  A    between atoms: C_8  and  O_10 
REMARK    7  A    between atoms: O_9  and  P_12 
REMARK    8  A    between atoms: C_11  and  O_13 
REMARK    9  A    between atoms: P_12  and  O_15 
REMARK   10  A    between atoms: P_12  and  O_16 
REMARK   11  A    between atoms: O_13  and  P_17 
REMARK   12  A    between atoms: P_17  and  O_19 
REMARK   13  A    between atoms: P_17  and  O_20 
ROOT
ATOM      1  C   UNL d   1      24.900  26.920  26.225  0.00  0.00     0.183 C 
ATOM      2  C   UNL d   1      26.203  26.565  26.939  0.00  0.00     0.181 C 
ATOM      3  C   UNL d   1      24.402  28.172  26.943  0.00  0.00     0.213 C 
ATOM      4  O   UNL d   1      26.063  27.035  28.292  0.00  0.00    -0.341 OA
ATOM      5  C   UNL d   1      25.127  28.114  28.321  0.00  0.00     0.213 C 
ENDROOT
BRANCH   5   6
ATOM      6  C   UNL d   1      25.892  29.371  28.731  0.00  0.00     0.251 C 
BRANCH   6   7
ATOM      7  O   UNL d   1      25.059  30.517  28.705  0.00  0.00    -0.292 OA
BRANCH   7   8
ATOM      8  P   UNL d   1      25.736  31.919  29.060  0.00  0.00     0.390 P 
ATOM      9  O   UNL d   1      26.258  32.719  27.923  0.00  0.00    -0.632 OA
BRANCH   8  10
ATOM     10  O   UNL d   1      24.609  32.687  29.894  0.00  0.00    -0.307 OA
ATOM     11  H   UNL d   1      24.882  33.611  30.021  0.00  0.00     0.222 HD
ENDBRANCH   8  10
BRANCH   8  12
ATOM     12  O   UNL d   1      26.813  31.544  30.164  0.00  0.00    -0.307 OA
ATOM     13  H   UNL d   1      26.397  31.188  30.963  0.00  0.00     0.222 HD
ENDBRANCH   8  12
ENDBRANCH   7   8
ENDBRANCH   6   7
ENDBRANCH   5   6
BRANCH   5  14
ATOM     14  O   UNL d   1      24.193  27.811  29.352  0.00  0.00    -0.362 OA
ATOM     15  H   UNL d   1      23.392  27.501  28.900  0.00  0.00     0.213 HD
ENDBRANCH   5  14
BRANCH   3  16
ATOM     16  O   UNL d   1      24.629  29.316  26.117  0.00  0.00    -0.387 OA
ATOM     17  H   UNL d   1      24.088  30.072  26.390  0.00  0.00     0.210 HD
ENDBRANCH   3  16
BRANCH   1  18
ATOM     18  O   UNL d   1      23.950  25.864  26.408  0.00  0.00    -0.390 OA
ATOM     19  H   UNL d   1      24.449  25.028  26.447  0.00  0.00     0.210 HD
ENDBRANCH   1  18
BRANCH   2  20
ATOM     20  C   UNL d   1      27.436  27.228  26.311  0.00  0.00     0.215 C 
BRANCH  20  21
ATOM     21  O   UNL d   1      28.300  26.218  25.791  0.00  0.00    -0.294 OA
BRANCH  21  22
ATOM     22  P   UNL d   1      29.878  26.222  26.500  0.00  0.00     0.390 P 
ATOM     23  O   UNL d   1      31.291  26.225  27.133  0.00  0.00    -0.632 OA
BRANCH  22  24
ATOM     24  O   UNL d   1      29.596  24.684  26.970  0.00  0.00    -0.307 OA
ATOM     25  H   UNL d   1      28.996  24.744  27.741  0.00  0.00     0.222 HD
ENDBRANCH  22  24
BRANCH  22  26
ATOM     26  O   UNL d   1      30.413  25.819  25.008  0.00  0.00    -0.307 OA
ATOM     27  H   UNL d   1      30.740  26.634  24.584  0.00  0.00     0.222 HD
ENDBRANCH  22  26
ENDBRANCH  21  22
ENDBRANCH  20  21
ENDBRANCH   2  20
TORSDOF 13
ENDMDL
MODEL 7
REMARK VINA RESULT:      -1.3      4.956      6.679
REMARK  13 active torsions:
REMARK  status: ('A' for Active; 'I' for Inactive)
REMARK    1  A    between atoms: C_2  and  O_1 
REMARK    2  A    between atoms: C_3  and  C_5 
REMARK    3  A    between atoms: C_4  and  O_7 
REMARK    4  A    between atoms: C_5  and  O_9 
REMARK    5  A    between atoms: C_8  and  C_11 
REMARK    6  A    between atoms: C_8  and  O_10 
REMARK    7  A    between atoms: O_9  and  P_12 
REMARK    8  A    between atoms: C_11  and  O_13 
REMARK    9  A    between atoms: P_12  and  O_15 
REMARK   10  A    between atoms: P_12  and  O_16 
REMARK   11  A    between atoms: O_13  and  P_17 
REMARK   12  A    between atoms: P_17  and  O_19 
REMARK   13  A    between atoms: P_17  and  O_20 
ROOT
ATOM      1  C   UNL d   1      20.517  37.189   4.158  0.00  0.00     0.183 C 
ATOM      2  C   UNL d   1      19.086  37.381   3.656  0.00  0.00     0.181 C 
ATOM      3  C   UNL d   1      20.510  37.788   5.562  0.00  0.00     0.213 C 
ATOM      4  O   UNL d   1      18.583  38.559   4.312  0.00  0.00    -0.341 OA
ATOM      5  C   UNL d   1      19.283  38.747   5.544  0.00  0.00     0.213 C 
ENDROOT
BRANCH   5   6
ATOM      6  C   UNL d   1      18.273  38.567   6.676  0.00  0.00     0.251 C 
BRANCH   6   7
ATOM      7  O   UNL d   1      18.771  39.076   7.901  0.00  0.00    -0.292 OA
BRANCH   7   8
ATOM      8  P   UNL d   1      18.792  38.080   9.149  0.00  0.00     0.390 P 
ATOM      9  O   UNL d   1      18.046  38.508  10.361  0.00  0.00    -0.632 OA
BRANCH   8  10
ATOM     10  O   UNL d   1      18.257  36.701   8.545  0.00  0.00    -0.307 OA
ATOM     11  H   UNL d   1      17.780  36.879   7.717  0.00  0.00     0.222 HD
ENDBRANCH   8  10
BRANCH   8  12
ATOM     12  O   UNL d   1      20.337  37.802   9.378  0.00  0.00    -0.307 OA
ATOM     13  H   UNL d   1      20.852  38.622   9.377  0.00  0.00     0.222 HD
ENDBRANCH   8  12
ENDBRANCH   7   8
ENDBRANCH   6   7
ENDBRANCH   5   6
BRANCH   5  14
ATOM     14  O   UNL d   1      19.721  40.102   5.556  0.00  0.00    -0.362 OA
ATOM     15  H   UNL d   1      19.900  40.330   4.630  0.00  0.00     0.213 HD
ENDBRANCH   5  14
BRANCH   3  16
ATOM     16  O   UNL d   1      20.521  36.735   6.529  0.00  0.00    -0.387 OA
ATOM     17  H   UNL d   1      21.249  36.832   7.161  0.00  0.00     0.210 HD
ENDBRANCH   3  16
BRANCH   1  18
ATOM     18  O   UNL d   1      21.418  37.936   3.332  0.00  0.00    -0.390 OA
ATOM     19  H   UNL d   1      21.125  38.865   3.348  0.00  0.00     0.210 HD
ENDBRANCH   1  18
BRANCH   2  20
ATOM     20  C   UNL d   1      18.166  36.199   3.989  0.00  0.00     0.215 C 
BRANCH  20  21
ATOM     21  O   UNL d   1      18.960  35.034   4.214  0.00  0.00    -0.294 OA
BRANCH  21  22
ATOM     22  P   UNL d   1      18.289  33.953   5.387  0.00  0.00     0.390 P 
ATOM     23  O   UNL d   1      17.689  32.987   6.437  0.00  0.00    -0.632 OA
BRANCH  22  24
ATOM     24  O   UNL d   1      19.757  33.926   6.101  0.00  0.00    -0.307 OA
ATOM     25  H   UNL d   1      20.296  33.292   5.585  0.00  0.00     0.222 HD
ENDBRANCH  22  24
BRANCH  22  26
ATOM     26  O   UNL d   1      17.781  35.303   6.157  0.00  0.00    -0.307 OA
ATOM     27  H   UNL d   1      18.506  35.954   6.116  0.00  0.00     0.222 HD
ENDBRANCH  22  26
ENDBRANCH  21  22
ENDBRANCH  20  21
ENDBRANCH   2  20
TORSDOF 13
ENDMDL
MODEL 8
REMARK VINA RESULT:      -1.1     16.813     19.084
REMARK  13 active torsions:
REMARK  status: ('A' for Active; 'I' for Inactive)
REMARK    1  A    between atoms: C_2  and  O_1 
REMARK    2  A    between atoms: C_3  and  C_5 
REMARK    3  A    between atoms: C_4  and  O_7 
REMARK    4  A    between atoms: C_5  and  O_9 
REMARK    5  A    between atoms: C_8  and  C_11 
REMARK    6  A    between atoms: C_8  and  O_10 
REMARK    7  A    between atoms: O_9  and  P_12 
REMARK    8  A    between atoms: C_11  and  O_13 
REMARK    9  A    between atoms: P_12  and  O_15 
REMARK   10  A    between atoms: P_12  and  O_16 
REMARK   11  A    between atoms: O_13  and  P_17 
REMARK   12  A    between atoms: P_17  and  O_19 
REMARK   13  A    between atoms: P_17  and  O_20 
ROOT
ATOM      1  C   UNL d   1      23.088  27.704  24.890  0.00  0.00     0.183 C 
ATOM      2  C   UNL d   1      24.275  26.746  24.800  0.00  0.00     0.181 C 
ATOM      3  C   UNL d   1      23.458  28.663  26.019  0.00  0.00     0.213 C 
ATOM      4  O   UNL d   1      24.834  26.671  26.124  0.00  0.00    -0.341 OA
ATOM      5  C   UNL d   1      24.522  27.870  26.836  0.00  0.00     0.213 C 
ENDROOT
BRANCH   5   6
ATOM      6  C   UNL d   1      25.839  28.596  27.105  0.00  0.00     0.251 C 
BRANCH   6   7
ATOM      7  O   UNL d   1      26.926  27.690  27.174  0.00  0.00    -0.292 OA
BRANCH   7   8
ATOM      8  P   UNL d   1      27.352  27.171  28.623  0.00  0.00     0.390 P 
ATOM      9  O   UNL d   1      28.804  26.966  28.862  0.00  0.00    -0.632 OA
BRANCH   8  10
ATOM     10  O   UNL d   1      26.704  28.241  29.617  0.00  0.00    -0.307 OA
ATOM     11  H   UNL d   1      26.218  27.771  30.317  0.00  0.00     0.222 HD
ENDBRANCH   8  10
BRANCH   8  12
ATOM     12  O   UNL d   1      26.452  25.882  28.838  0.00  0.00    -0.307 OA
ATOM     13  H   UNL d   1      25.509  26.103  28.851  0.00  0.00     0.222 HD
ENDBRANCH   8  12
ENDBRANCH   7   8
ENDBRANCH   6   7
ENDBRANCH   5   6
BRANCH   5  14
ATOM     14  O   UNL d   1      23.977  27.468  28.088  0.00  0.00    -0.362 OA
ATOM     15  H   UNL d   1      23.018  27.598  28.013  0.00  0.00     0.213 HD
ENDBRANCH   5  14
BRANCH   3  16
ATOM     16  O   UNL d   1      23.843  29.923  25.467  0.00  0.00    -0.387 OA
ATOM     17  H   UNL d   1      23.809  30.633  26.125  0.00  0.00     0.210 HD
ENDBRANCH   3  16
BRANCH   1  18
ATOM     18  O   UNL d   1      21.911  26.975  25.258  0.00  0.00    -0.390 OA
ATOM     19  H   UNL d   1      21.535  27.410  26.046  0.00  0.00     0.210 HD
ENDBRANCH   1  18
BRANCH   2  20
ATOM     20  C   UNL d   1      25.364  27.223  23.830  0.00  0.00     0.215 C 
BRANCH  20  21
ATOM     21  O   UNL d   1      26.580  26.530  24.111  0.00  0.00    -0.294 OA
BRANCH  21  22
ATOM     22  P   UNL d   1      28.000  27.417  23.675  0.00  0.00     0.390 P 
ATOM     23  O   UNL d   1      29.272  28.209  23.285  0.00  0.00    -0.632 OA
BRANCH  22  24
ATOM     24  O   UNL d   1      28.659  26.922  25.085  0.00  0.00    -0.307 OA
ATOM     25  H   UNL d   1      28.247  27.472  25.782  0.00  0.00     0.222 HD
ENDBRANCH  22  24
BRANCH  22  26
ATOM     26  O   UNL d   1      28.428  26.078  22.840  0.00  0.00    -0.307 OA
ATOM     27  H   UNL d   1      28.199  26.231  21.905  0.00  0.00     0.222 HD
ENDBRANCH  22  26
ENDBRANCH  21  22
ENDBRANCH  20  21
ENDBRANCH   2  20
TORSDOF 13
ENDMDL
MODEL 9
REMARK VINA RESULT:      -1.0      4.502      5.652
REMARK  13 active torsions:
REMARK  status: ('A' for Active; 'I' for Inactive)
REMARK    1  A    between atoms: C_2  and  O_1 
REMARK    2  A    between atoms: C_3  and  C_5 
REMARK    3  A    between atoms: C_4  and  O_7 
REMARK    4  A    between atoms: C_5  and  O_9 
REMARK    5  A    between atoms: C_8  and  C_11 
REMARK    6  A    between atoms: C_8  and  O_10 
REMARK    7  A    between atoms: O_9  and  P_12 
REMARK    8  A    between atoms: C_11  and  O_13 
REMARK    9  A    between atoms: P_12  and  O_15 
REMARK   10  A    between atoms: P_12  and  O_16 
REMARK   11  A    between atoms: O_13  and  P_17 
REMARK   12  A    between atoms: P_17  and  O_19 
REMARK   13  A    between atoms: P_17  and  O_20 
ROOT
ATOM      1  C   UNL d   1      19.931  36.079   5.792  0.00  0.00     0.183 C 
ATOM      2  C   UNL d   1      18.662  36.846   6.161  0.00  0.00     0.181 C 
ATOM      3  C   UNL d   1      20.872  36.310   6.972  0.00  0.00     0.213 C 
ATOM      4  O   UNL d   1      19.082  37.943   6.994  0.00  0.00    -0.341 OA
ATOM      5  C   UNL d   1      20.311  37.602   7.638  0.00  0.00     0.213 C 
ENDROOT
BRANCH   5   6
ATOM      6  C   UNL d   1      20.033  37.518   9.137  0.00  0.00     0.251 C 
BRANCH   6   7
ATOM      7  O   UNL d   1      18.902  38.292   9.499  0.00  0.00    -0.292 OA
BRANCH   7   8
ATOM      8  P   UNL d   1      17.862  37.633  10.515  0.00  0.00     0.390 P 
ATOM      9  O   UNL d   1      16.515  37.308   9.979  0.00  0.00    -0.632 OA
BRANCH   8  10
ATOM     10  O   UNL d   1      18.635  36.351  11.074  0.00  0.00    -0.307 OA
ATOM     11  H   UNL d   1      19.404  36.171  10.507  0.00  0.00     0.222 HD
ENDBRANCH   8  10
BRANCH   8  12
ATOM     12  O   UNL d   1      17.867  38.628  11.752  0.00  0.00    -0.307 OA
ATOM     13  H   UNL d   1      18.581  39.278  11.685  0.00  0.00     0.222 HD
ENDBRANCH   8  12
ENDBRANCH   7   8
ENDBRANCH   6   7
ENDBRANCH   5   6
BRANCH   5  14
ATOM     14  O   UNL d   1      21.200  38.692   7.415  0.00  0.00    -0.362 OA
ATOM     15  H   UNL d   1      20.646  39.489   7.415  0.00  0.00     0.213 HD
ENDBRANCH   5  14
BRANCH   3  16
ATOM     16  O   UNL d   1      20.939  35.124   7.766  0.00  0.00    -0.387 OA
ATOM     17  H   UNL d   1      21.020  34.328   7.221  0.00  0.00     0.210 HD
ENDBRANCH   3  16
BRANCH   1  18
ATOM     18  O   UNL d   1      20.508  36.648   4.611  0.00  0.00    -0.390 OA
ATOM     19  H   UNL d   1      20.811  35.910   4.051  0.00  0.00     0.210 HD
ENDBRANCH   1  18
BRANCH   2  20
ATOM     20  C   UNL d   1      17.648  35.996   6.938  0.00  0.00     0.215 C 
BRANCH  20  21
ATOM     21  O   UNL d   1      18.136  34.659   7.042  0.00  0.00    -0.294 OA
BRANCH  21  22
ATOM     22  P   UNL d   1      17.394  33.746   8.311  0.00  0.00     0.390 P 
ATOM     23  O   UNL d   1      16.731  32.930   9.447  0.00  0.00    -0.632 OA
BRANCH  22  24
ATOM     24  O   UNL d   1      18.086  32.416   7.666  0.00  0.00    -0.307 OA
ATOM     25  H   UNL d   1      17.605  32.240   6.831  0.00  0.00     0.222 HD
ENDBRANCH  22  24
BRANCH  22  26
ATOM     26  O   UNL d   1      18.697  34.166   9.205  0.00  0.00    -0.307 OA
ATOM     27  H   UNL d   1      18.401  34.255  10.130  0.00  0.00     0.222 HD
ENDBRANCH  22  26
ENDBRANCH  21  22
ENDBRANCH  20  21
ENDBRANCH   2  20
TORSDOF 13
ENDMDL
