MODEL 1
REMARK VINA RESULT:      -5.8      0.000      0.000
REMARK  12 active torsions:
REMARK  status: ('A' for Active; 'I' for Inactive)
REMARK    1  A    between atoms: C_2  and  C_3 
REMARK    2  A    between atoms: C_3  and  C_4 
REMARK    3  A    between atoms: C_4  and  S_6 
REMARK    4  A    between atoms: S_6  and  C_8 
REMARK    5  A    between atoms: C_8  and  C_9 
REMARK    6  A    between atoms: C_9  and  C_10 
REMARK    7  A    between atoms: C_10  and  S_12 
REMARK    8  A    between atoms: C_10  and  C_11 
REMARK    9  A    between atoms: C_11  and  C_13 
REMARK   10  A    between atoms: C_13  and  C_14 
REMARK   11  A    between atoms: C_14  and  C_15 
REMARK   12  A    between atoms: C_15  and  C_16 
REMARK       I    between atoms: C_16  and  N_18 
ROOT
ATOM      1  C   UNL d   1      19.062  10.495  19.739  0.00  0.00     0.045 C 
ENDROOT
BRANCH   1   2
ATOM      2  C   UNL d   1      17.826   9.747  20.274  0.00  0.00     0.025 C 
BRANCH   2   3
ATOM      3  C   UNL d   1      18.151   8.443  20.999  0.00  0.00     0.083 C 
BRANCH   3   4
ATOM      4  S   UNL d   1      17.731   8.566  22.758  0.00  0.00    -0.092 SA
BRANCH   4   5
ATOM      5  C   UNL d   1      16.562   7.241  22.841  0.00  0.00     0.189 C 
ATOM      6  O   UNL d   1      16.373   6.483  21.898  0.00  0.00    -0.285 OA
BRANCH   5   7
ATOM      7  C   UNL d   1      15.862   7.124  24.187  0.00  0.00     0.062 C 
ATOM      8  C   UNL d   1      15.448   5.667  24.388  0.00  0.00     0.018 C 
BRANCH   7   9
ATOM      9  C   UNL d   1      14.637   8.047  24.271  0.00  0.00     0.008 C 
ATOM     10  C   UNL d   1      14.001   8.077  25.656  0.00  0.00     0.006 C 
ENDBRANCH   7   9
ENDBRANCH   5   7
ENDBRANCH   4   5
ENDBRANCH   3   4
ENDBRANCH   2   3
ENDBRANCH   1   2
BRANCH   1  11
ATOM     11  S   UNL d   1      20.525   9.398  19.609  0.00  0.00    -0.177 SA
ATOM     12  H   UNL d   1      20.867   9.408  20.905  0.00  0.00     0.102 HD
ENDBRANCH   1  11
BRANCH   1  13
ATOM     13  C   UNL d   1      18.826  11.203  18.392  0.00  0.00     0.015 C 
BRANCH  13  14
ATOM     14  C   UNL d   1      19.153  12.705  18.416  0.00  0.00     0.002 C 
BRANCH  14  15
ATOM     15  C   UNL d   1      20.442  13.085  17.679  0.00  0.00     0.009 C 
BRANCH  15  16
ATOM     16  C   UNL d   1      20.174  14.009  16.493  0.00  0.00     0.102 C 
BRANCH  16  17
ATOM     17  C   UNL d   1      20.679  15.415  16.717  0.00  0.00     0.215 C 
ATOM     18  N   UNL d   1      20.685  16.177  15.584  0.00  0.00    -0.370 N 
ATOM     19  H   UNL d   1      20.457  15.810  14.675  0.00  0.00     0.159 HD
ATOM     20  H   UNL d   1      21.059  17.115  15.651  0.00  0.00     0.159 HD
ATOM     21  O   UNL d   1      21.064  15.861  17.790  0.00  0.00    -0.274 OA
ENDBRANCH  16  17
ENDBRANCH  15  16
ENDBRANCH  14  15
ENDBRANCH  13  14
ENDBRANCH   1  13
TORSDOF 12
ENDMDL
MODEL 2
REMARK VINA RESULT:      -5.2     25.036     27.112
REMARK  12 active torsions:
REMARK  status: ('A' for Active; 'I' for Inactive)
REMARK    1  A    between atoms: C_2  and  C_3 
REMARK    2  A    between atoms: C_3  and  C_4 
REMARK    3  A    between atoms: C_4  and  S_6 
REMARK    4  A    between atoms: S_6  and  C_8 
REMARK    5  A    between atoms: C_8  and  C_9 
REMARK    6  A    between atoms: C_9  and  C_10 
REMARK    7  A    between atoms: C_10  and  S_12 
REMARK    8  A    between atoms: C_10  and  C_11 
REMARK    9  A    between atoms: C_11  and  C_13 
REMARK   10  A    between atoms: C_13  and  C_14 
REMARK   11  A    between atoms: C_14  and  C_15 
REMARK   12  A    between atoms: C_15  and  C_16 
REMARK       I    between atoms: C_16  and  N_18 
ROOT
ATOM      1  C   UNL d   1      -2.563  -1.977  23.878  0.00  0.00     0.045 C 
ENDROOT
BRANCH   1   2
ATOM      2  C   UNL d   1      -2.295  -2.765  25.175  0.00  0.00     0.025 C 
BRANCH   2   3
ATOM      3  C   UNL d   1      -1.408  -2.031  26.178  0.00  0.00     0.083 C 
BRANCH   3   4
ATOM      4  S   UNL d   1      -1.052  -3.085  27.609  0.00  0.00    -0.092 SA
BRANCH   4   5
ATOM      5  C   UNL d   1      -2.037  -2.237  28.810  0.00  0.00     0.189 C 
ATOM      6  O   UNL d   1      -2.109  -1.014  28.843  0.00  0.00    -0.285 OA
BRANCH   5   7
ATOM      7  C   UNL d   1      -2.794  -3.165  29.748  0.00  0.00     0.062 C 
ATOM      8  C   UNL d   1      -4.246  -3.243  29.277  0.00  0.00     0.018 C 
BRANCH   7   9
ATOM      9  C   UNL d   1      -2.728  -2.678  31.203  0.00  0.00     0.008 C 
ATOM     10  C   UNL d   1      -1.588  -3.306  31.995  0.00  0.00     0.006 C 
ENDBRANCH   7   9
ENDBRANCH   5   7
ENDBRANCH   4   5
ENDBRANCH   3   4
ENDBRANCH   2   3
ENDBRANCH   1   2
BRANCH   1  11
ATOM     11  S   UNL d   1      -2.294  -3.003  22.383  0.00  0.00    -0.177 SA
ATOM     12  H   UNL d   1      -1.269  -3.728  22.851  0.00  0.00     0.102 HD
ENDBRANCH   1  11
BRANCH   1  13
ATOM     13  C   UNL d   1      -3.962  -1.334  23.819  0.00  0.00     0.015 C 
BRANCH  13  14
ATOM     14  C   UNL d   1      -5.003  -2.036  24.706  0.00  0.00     0.002 C 
BRANCH  14  15
ATOM     15  C   UNL d   1      -5.728  -3.204  24.029  0.00  0.00     0.009 C 
BRANCH  15  16
ATOM     16  C   UNL d   1      -7.058  -2.775  23.414  0.00  0.00     0.102 C 
BRANCH  16  17
ATOM     17  C   UNL d   1      -8.152  -3.799  23.605  0.00  0.00     0.215 C 
ATOM     18  N   UNL d   1      -8.222  -4.289  24.877  0.00  0.00    -0.370 N 
ATOM     19  H   UNL d   1      -7.555  -4.053  25.594  0.00  0.00     0.159 HD
ATOM     20  H   UNL d   1      -8.900  -5.017  25.063  0.00  0.00     0.159 HD
ATOM     21  O   UNL d   1      -8.913  -4.186  22.728  0.00  0.00    -0.274 OA
ENDBRANCH  16  17
ENDBRANCH  15  16
ENDBRANCH  14  15
ENDBRANCH  13  14
ENDBRANCH   1  13
TORSDOF 12
ENDMDL
MODEL 3
REMARK VINA RESULT:      -5.1      5.704      8.931
REMARK  12 active torsions:
REMARK  status: ('A' for Active; 'I' for Inactive)
REMARK    1  A    between atoms: C_2  and  C_3 
REMARK    2  A    between atoms: C_3  and  C_4 
REMARK    3  A    between atoms: C_4  and  S_6 
REMARK    4  A    between atoms: S_6  and  C_8 
REMARK    5  A    between atoms: C_8  and  C_9 
REMARK    6  A    between atoms: C_9  and  C_10 
REMARK    7  A    between atoms: C_10  and  S_12 
REMARK    8  A    between atoms: C_10  and  C_11 
REMARK    9  A    between atoms: C_11  and  C_13 
REMARK   10  A    between atoms: C_13  and  C_14 
REMARK   11  A    between atoms: C_14  and  C_15 
REMARK   12  A    between atoms: C_15  and  C_16 
REMARK       I    between atoms: C_16  and  N_18 
ROOT
ATOM      1  C   UNL d   1      15.881   5.866  25.171  0.00  0.00     0.045 C 
ENDROOT
BRANCH   1   2
ATOM      2  C   UNL d   1      14.700   6.558  24.463  0.00  0.00     0.025 C 
BRANCH   2   3
ATOM      3  C   UNL d   1      14.890   6.729  22.957  0.00  0.00     0.083 C 
BRANCH   3   4
ATOM      4  S   UNL d   1      15.622   8.345  22.583  0.00  0.00    -0.092 SA
BRANCH   4   5
ATOM      5  C   UNL d   1      17.167   7.787  21.928  0.00  0.00     0.189 C 
ATOM      6  O   UNL d   1      17.241   6.829  21.168  0.00  0.00    -0.285 OA
BRANCH   5   7
ATOM      7  C   UNL d   1      18.359   8.624  22.367  0.00  0.00     0.062 C 
ATOM      8  C   UNL d   1      18.629   9.676  21.292  0.00  0.00     0.018 C 
BRANCH   7   9
ATOM      9  C   UNL d   1      19.607   7.759  22.598  0.00  0.00     0.008 C 
ATOM     10  C   UNL d   1      20.631   7.872  21.476  0.00  0.00     0.006 C 
ENDBRANCH   7   9
ENDBRANCH   5   7
ENDBRANCH   4   5
ENDBRANCH   3   4
ENDBRANCH   2   3
ENDBRANCH   1   2
BRANCH   1  11
ATOM     11  S   UNL d   1      16.863   4.834  24.018  0.00  0.00    -0.177 SA
ATOM     12  H   UNL d   1      18.006   4.829  24.718  0.00  0.00     0.102 HD
ENDBRANCH   1  11
BRANCH   1  13
ATOM     13  C   UNL d   1      16.815   6.839  25.916  0.00  0.00     0.015 C 
BRANCH  13  14
ATOM     14  C   UNL d   1      18.309   6.529  25.728  0.00  0.00     0.002 C 
BRANCH  14  15
ATOM     15  C   UNL d   1      19.235   7.256  26.709  0.00  0.00     0.009 C 
BRANCH  15  16
ATOM     16  C   UNL d   1      20.704   6.914  26.473  0.00  0.00     0.102 C 
BRANCH  16  17
ATOM     17  C   UNL d   1      21.291   6.051  27.566  0.00  0.00     0.215 C 
ATOM     18  N   UNL d   1      21.587   6.744  28.705  0.00  0.00    -0.370 N 
ATOM     19  H   UNL d   1      21.501   7.745  28.776  0.00  0.00     0.159 HD
ATOM     20  H   UNL d   1      22.030   6.237  29.460  0.00  0.00     0.159 HD
ATOM     21  O   UNL d   1      21.506   4.850  27.473  0.00  0.00    -0.274 OA
ENDBRANCH  16  17
ENDBRANCH  15  16
ENDBRANCH  14  15
ENDBRANCH  13  14
ENDBRANCH   1  13
TORSDOF 12
ENDMDL
MODEL 4
REMARK VINA RESULT:      -4.9     18.685     20.613
REMARK  12 active torsions:
REMARK  status: ('A' for Active; 'I' for Inactive)
REMARK    1  A    between atoms: C_2  and  C_3 
REMARK    2  A    between atoms: C_3  and  C_4 
REMARK    3  A    between atoms: C_4  and  S_6 
REMARK    4  A    between atoms: S_6  and  C_8 
REMARK    5  A    between atoms: C_8  and  C_9 
REMARK    6  A    between atoms: C_9  and  C_10 
REMARK    7  A    between atoms: C_10  and  S_12 
REMARK    8  A    between atoms: C_10  and  C_11 
REMARK    9  A    between atoms: C_11  and  C_13 
REMARK   10  A    between atoms: C_13  and  C_14 
REMARK   11  A    between atoms: C_14  and  C_15 
REMARK   12  A    between atoms: C_15  and  C_16 
REMARK       I    between atoms: C_16  and  N_18 
ROOT
ATOM      1  C   UNL d   1       2.837  -2.285  25.877  0.00  0.00     0.045 C 
ENDROOT
BRANCH   1   2
ATOM      2  C   UNL d   1       2.276  -3.664  25.478  0.00  0.00     0.025 C 
BRANCH   2   3
ATOM      3  C   UNL d   1       1.684  -3.713  24.071  0.00  0.00     0.083 C 
BRANCH   3   4
ATOM      4  S   UNL d   1       0.575  -2.306  23.794  0.00  0.00    -0.092 SA
BRANCH   4   5
ATOM      5  C   UNL d   1       1.463  -1.527  22.477  0.00  0.00     0.189 C 
ATOM      6  O   UNL d   1       1.861  -2.155  21.503  0.00  0.00    -0.285 OA
BRANCH   5   7
ATOM      7  C   UNL d   1       1.643  -0.028  22.660  0.00  0.00     0.062 C 
ATOM      8  C   UNL d   1       0.988   0.376  23.981  0.00  0.00     0.018 C 
BRANCH   7   9
ATOM      9  C   UNL d   1       1.033   0.764  21.494  0.00  0.00     0.008 C 
ATOM     10  C   UNL d   1      -0.484   0.888  21.581  0.00  0.00     0.006 C 
ENDBRANCH   7   9
ENDBRANCH   5   7
ENDBRANCH   4   5
ENDBRANCH   3   4
ENDBRANCH   2   3
ENDBRANCH   1   2
BRANCH   1  11
ATOM     11  S   UNL d   1       2.487  -1.883  27.631  0.00  0.00    -0.177 SA
ATOM     12  H   UNL d   1       3.614  -2.386  28.153  0.00  0.00     0.102 HD
ENDBRANCH   1  11
BRANCH   1  13
ATOM     13  C   UNL d   1       4.343  -2.123  25.600  0.00  0.00     0.015 C 
BRANCH  13  14
ATOM     14  C   UNL d   1       5.229  -3.081  26.415  0.00  0.00     0.002 C 
BRANCH  14  15
ATOM     15  C   UNL d   1       6.707  -2.681  26.472  0.00  0.00     0.009 C 
BRANCH  15  16
ATOM     16  C   UNL d   1       7.578  -3.573  25.590  0.00  0.00     0.102 C 
BRANCH  16  17
ATOM     17  C   UNL d   1       7.566  -3.155  24.138  0.00  0.00     0.215 C 
ATOM     18  N   UNL d   1       6.702  -3.881  23.370  0.00  0.00    -0.370 N 
ATOM     19  H   UNL d   1       6.188  -4.672  23.722  0.00  0.00     0.159 HD
ATOM     20  H   UNL d   1       6.681  -3.688  22.377  0.00  0.00     0.159 HD
ATOM     21  O   UNL d   1       8.258  -2.267  23.657  0.00  0.00    -0.274 OA
ENDBRANCH  16  17
ENDBRANCH  15  16
ENDBRANCH  14  15
ENDBRANCH  13  14
ENDBRANCH   1  13
TORSDOF 12
ENDMDL
MODEL 5
REMARK VINA RESULT:      -4.9      5.531      8.100
REMARK  12 active torsions:
REMARK  status: ('A' for Active; 'I' for Inactive)
REMARK    1  A    between atoms: C_2  and  C_3 
REMARK    2  A    between atoms: C_3  and  C_4 
REMARK    3  A    between atoms: C_4  and  S_6 
REMARK    4  A    between atoms: S_6  and  C_8 
REMARK    5  A    between atoms: C_8  and  C_9 
REMARK    6  A    between atoms: C_9  and  C_10 
REMARK    7  A    between atoms: C_10  and  S_12 
REMARK    8  A    between atoms: C_10  and  C_11 
REMARK    9  A    between atoms: C_11  and  C_13 
REMARK   10  A    between atoms: C_13  and  C_14 
REMARK   11  A    between atoms: C_14  and  C_15 
REMARK   12  A    between atoms: C_15  and  C_16 
REMARK       I    between atoms: C_16  and  N_18 
ROOT
ATOM      1  C   UNL d   1      16.876   7.488  23.534  0.00  0.00     0.045 C 
ENDROOT
BRANCH   1   2
ATOM      2  C   UNL d   1      17.608   8.628  22.800  0.00  0.00     0.025 C 
BRANCH   2   3
ATOM      3  C   UNL d   1      17.594   8.499  21.278  0.00  0.00     0.083 C 
BRANCH   3   4
ATOM      4  S   UNL d   1      19.209   8.940  20.583  0.00  0.00    -0.092 SA
BRANCH   4   5
ATOM      5  C   UNL d   1      20.103   7.489  21.056  0.00  0.00     0.189 C 
ATOM      6  O   UNL d   1      20.877   7.485  22.005  0.00  0.00    -0.285 OA
BRANCH   5   7
ATOM      7  C   UNL d   1      19.786   6.268  20.205  0.00  0.00     0.062 C 
ATOM      8  C   UNL d   1      19.164   5.203  21.106  0.00  0.00     0.018 C 
BRANCH   7   9
ATOM      9  C   UNL d   1      21.042   5.718  19.513  0.00  0.00     0.008 C 
ATOM     10  C   UNL d   1      21.279   4.238  19.786  0.00  0.00     0.006 C 
ENDBRANCH   7   9
ENDBRANCH   5   7
ENDBRANCH   4   5
ENDBRANCH   3   4
ENDBRANCH   2   3
ENDBRANCH   1   2
BRANCH   1  11
ATOM     11  S   UNL d   1      15.825   6.505  22.399  0.00  0.00    -0.177 SA
ATOM     12  H   UNL d   1      15.190   7.531  21.816  0.00  0.00     0.102 HD
ENDBRANCH   1  11
BRANCH   1  13
ATOM     13  C   UNL d   1      17.814   6.548  24.314  0.00  0.00     0.015 C 
BRANCH  13  14
ATOM     14  C   UNL d   1      17.750   6.735  25.839  0.00  0.00     0.002 C 
BRANCH  14  15
ATOM     15  C   UNL d   1      19.053   7.235  26.472  0.00  0.00     0.009 C 
BRANCH  15  16
ATOM     16  C   UNL d   1      20.068   7.680  25.421  0.00  0.00     0.102 C 
BRANCH  16  17
ATOM     17  C   UNL d   1      21.401   8.066  26.017  0.00  0.00     0.215 C 
ATOM     18  N   UNL d   1      21.424   9.333  26.523  0.00  0.00    -0.370 N 
ATOM     19  H   UNL d   1      20.653   9.975  26.430  0.00  0.00     0.159 HD
ATOM     20  H   UNL d   1      22.301   9.676  26.893  0.00  0.00     0.159 HD
ATOM     21  O   UNL d   1      22.390   7.345  26.051  0.00  0.00    -0.274 OA
ENDBRANCH  16  17
ENDBRANCH  15  16
ENDBRANCH  14  15
ENDBRANCH  13  14
ENDBRANCH   1  13
TORSDOF 12
ENDMDL
MODEL 6
REMARK VINA RESULT:      -4.7     20.562     24.137
REMARK  12 active torsions:
REMARK  status: ('A' for Active; 'I' for Inactive)
REMARK    1  A    between atoms: C_2  and  C_3 
REMARK    2  A    between atoms: C_3  and  C_4 
REMARK    3  A    between atoms: C_4  and  S_6 
REMARK    4  A    between atoms: S_6  and  C_8 
REMARK    5  A    between atoms: C_8  and  C_9 
REMARK    6  A    between atoms: C_9  and  C_10 
REMARK    7  A    between atoms: C_10  and  S_12 
REMARK    8  A    between atoms: C_10  and  C_11 
REMARK    9  A    between atoms: C_11  and  C_13 
REMARK   10  A    between atoms: C_13  and  C_14 
REMARK   11  A    between atoms: C_14  and  C_15 
REMARK   12  A    between atoms: C_15  and  C_16 
REMARK       I    between atoms: C_16  and  N_18 
ROOT
ATOM      1  C   UNL d   1      -0.719   0.007  25.981  0.00  0.00     0.045 C 
ENDROOT
BRANCH   1   2
ATOM      2  C   UNL d   1      -0.691  -0.666  24.596  0.00  0.00     0.025 C 
BRANCH   2   3
ATOM      3  C   UNL d   1      -1.481   0.083  23.523  0.00  0.00     0.083 C 
BRANCH   3   4
ATOM      4  S   UNL d   1      -1.319  -0.740  21.917  0.00  0.00    -0.092 SA
BRANCH   4   5
ATOM      5  C   UNL d   1       0.373  -0.342  21.588  0.00  0.00     0.189 C 
ATOM      6  O   UNL d   1       1.241  -1.204  21.524  0.00  0.00    -0.285 OA
BRANCH   5   7
ATOM      7  C   UNL d   1       0.621   1.142  21.360  0.00  0.00     0.062 C 
ATOM      8  C   UNL d   1       0.700   1.390  19.855  0.00  0.00     0.018 C 
BRANCH   7   9
ATOM      9  C   UNL d   1       1.909   1.614  22.050  0.00  0.00     0.008 C 
ATOM     10  C   UNL d   1       1.694   2.037  23.498  0.00  0.00     0.006 C 
ENDBRANCH   7   9
ENDBRANCH   5   7
ENDBRANCH   4   5
ENDBRANCH   3   4
ENDBRANCH   2   3
ENDBRANCH   1   2
BRANCH   1  11
ATOM     11  S   UNL d   1      -1.662   1.579  25.963  0.00  0.00    -0.177 SA
ATOM     12  H   UNL d   1      -2.593   1.234  26.864  0.00  0.00     0.102 HD
ENDBRANCH   1  11
BRANCH   1  13
ATOM     13  C   UNL d   1      -1.254  -0.904  27.103  0.00  0.00     0.015 C 
BRANCH  13  14
ATOM     14  C   UNL d   1      -2.452  -0.311  27.863  0.00  0.00     0.002 C 
BRANCH  14  15
ATOM     15  C   UNL d   1      -2.812  -1.052  29.155  0.00  0.00     0.009 C 
BRANCH  15  16
ATOM     16  C   UNL d   1      -2.298  -2.490  29.155  0.00  0.00     0.102 C 
BRANCH  16  17
ATOM     17  C   UNL d   1      -2.134  -3.057  30.545  0.00  0.00     0.215 C 
ATOM     18  N   UNL d   1      -1.123  -3.968  30.645  0.00  0.00    -0.370 N 
ATOM     19  H   UNL d   1      -0.595  -4.292  29.850  0.00  0.00     0.159 HD
ATOM     20  H   UNL d   1      -0.989  -4.426  31.537  0.00  0.00     0.159 HD
ATOM     21  O   UNL d   1      -2.828  -2.763  31.510  0.00  0.00    -0.274 OA
ENDBRANCH  16  17
ENDBRANCH  15  16
ENDBRANCH  14  15
ENDBRANCH  13  14
ENDBRANCH   1  13
TORSDOF 12
ENDMDL
MODEL 7
REMARK VINA RESULT:      -4.7     46.129     49.711
REMARK  12 active torsions:
REMARK  status: ('A' for Active; 'I' for Inactive)
REMARK    1  A    between atoms: C_2  and  C_3 
REMARK    2  A    between atoms: C_3  and  C_4 
REMARK    3  A    between atoms: C_4  and  S_6 
REMARK    4  A    between atoms: S_6  and  C_8 
REMARK    5  A    between atoms: C_8  and  C_9 
REMARK    6  A    between atoms: C_9  and  C_10 
REMARK    7  A    between atoms: C_10  and  S_12 
REMARK    8  A    between atoms: C_10  and  C_11 
REMARK    9  A    between atoms: C_11  and  C_13 
REMARK   10  A    between atoms: C_13  and  C_14 
REMARK   11  A    between atoms: C_14  and  C_15 
REMARK   12  A    between atoms: C_15  and  C_16 
REMARK       I    between atoms: C_16  and  N_18 
ROOT
ATOM      1  C   UNL d   1     -32.446   4.444  23.361  0.00  0.00     0.045 C 
ENDROOT
BRANCH   1   2
ATOM      2  C   UNL d   1     -31.320   4.881  24.317  0.00  0.00     0.025 C 
BRANCH   2   3
ATOM      3  C   UNL d   1     -29.986   5.158  23.624  0.00  0.00     0.083 C 
BRANCH   3   4
ATOM      4  S   UNL d   1     -28.653   5.318  24.842  0.00  0.00    -0.092 SA
BRANCH   4   5
ATOM      5  C   UNL d   1     -27.318   4.716  23.849  0.00  0.00     0.189 C 
ATOM      6  O   UNL d   1     -26.818   5.390  22.957  0.00  0.00    -0.285 OA
BRANCH   5   7
ATOM      7  C   UNL d   1     -26.846   3.322  24.236  0.00  0.00     0.062 C 
ATOM      8  C   UNL d   1     -27.808   2.303  23.627  0.00  0.00     0.018 C 
BRANCH   7   9
ATOM      9  C   UNL d   1     -26.776   3.150  25.760  0.00  0.00     0.008 C 
ATOM     10  C   UNL d   1     -25.847   2.023  26.196  0.00  0.00     0.006 C 
ENDBRANCH   7   9
ENDBRANCH   5   7
ENDBRANCH   4   5
ENDBRANCH   3   4
ENDBRANCH   2   3
ENDBRANCH   1   2
BRANCH   1  11
ATOM     11  S   UNL d   1     -32.396   5.363  21.775  0.00  0.00    -0.177 SA
ATOM     12  H   UNL d   1     -32.392   6.600  22.291  0.00  0.00     0.102 HD
ENDBRANCH   1  11
BRANCH   1  13
ATOM     13  C   UNL d   1     -32.469   2.930  23.080  0.00  0.00     0.015 C 
BRANCH  13  14
ATOM     14  C   UNL d   1     -32.511   2.579  21.583  0.00  0.00     0.002 C 
BRANCH  14  15
ATOM     15  C   UNL d   1     -33.221   1.259  21.262  0.00  0.00     0.009 C 
BRANCH  15  16
ATOM     16  C   UNL d   1     -32.461   0.436  20.225  0.00  0.00     0.102 C 
BRANCH  16  17
ATOM     17  C   UNL d   1     -33.305   0.077  19.024  0.00  0.00     0.215 C 
ATOM     18  N   UNL d   1     -32.570  -0.226  17.914  0.00  0.00    -0.370 N 
ATOM     19  H   UNL d   1     -31.567  -0.134  17.878  0.00  0.00     0.159 HD
ATOM     20  H   UNL d   1     -33.072  -0.426  17.059  0.00  0.00     0.159 HD
ATOM     21  O   UNL d   1     -34.528   0.059  19.006  0.00  0.00    -0.274 OA
ENDBRANCH  16  17
ENDBRANCH  15  16
ENDBRANCH  14  15
ENDBRANCH  13  14
ENDBRANCH   1  13
TORSDOF 12
ENDMDL
MODEL 8
REMARK VINA RESULT:      -4.6     18.353     20.872
REMARK  12 active torsions:
REMARK  status: ('A' for Active; 'I' for Inactive)
REMARK    1  A    between atoms: C_2  and  C_3 
REMARK    2  A    between atoms: C_3  and  C_4 
REMARK    3  A    between atoms: C_4  and  S_6 
REMARK    4  A    between atoms: S_6  and  C_8 
REMARK    5  A    between atoms: C_8  and  C_9 
REMARK    6  A    between atoms: C_9  and  C_10 
REMARK    7  A    between atoms: C_10  and  S_12 
REMARK    8  A    between atoms: C_10  and  C_11 
REMARK    9  A    between atoms: C_11  and  C_13 
REMARK   10  A    between atoms: C_13  and  C_14 
REMARK   11  A    between atoms: C_14  and  C_15 
REMARK   12  A    between atoms: C_15  and  C_16 
REMARK       I    between atoms: C_16  and  N_18 
ROOT
ATOM      1  C   UNL d   1       2.025  -2.905  26.961  0.00  0.00     0.045 C 
ENDROOT
BRANCH   1   2
ATOM      2  C   UNL d   1       0.981  -1.970  26.322  0.00  0.00     0.025 C 
BRANCH   2   3
ATOM      3  C   UNL d   1       0.079  -2.652  25.294  0.00  0.00     0.083 C 
BRANCH   3   4
ATOM      4  S   UNL d   1      -0.436  -1.477  24.014  0.00  0.00    -0.092 SA
BRANCH   4   5
ATOM      5  C   UNL d   1       0.965  -1.623  22.945  0.00  0.00     0.189 C 
ATOM      6  O   UNL d   1       1.507  -2.700  22.729  0.00  0.00    -0.285 OA
BRANCH   5   7
ATOM      7  C   UNL d   1       1.392  -0.308  22.309  0.00  0.00     0.062 C 
ATOM      8  C   UNL d   1       1.459   0.755  23.405  0.00  0.00     0.018 C 
BRANCH   7   9
ATOM      9  C   UNL d   1       0.424   0.126  21.199  0.00  0.00     0.008 C 
ATOM     10  C   UNL d   1       0.840   1.421  20.512  0.00  0.00     0.006 C 
ENDBRANCH   7   9
ENDBRANCH   5   7
ENDBRANCH   4   5
ENDBRANCH   3   4
ENDBRANCH   2   3
ENDBRANCH   1   2
BRANCH   1  11
ATOM     11  S   UNL d   1       1.417  -4.630  27.087  0.00  0.00    -0.177 SA
ATOM     12  H   UNL d   1       1.176  -4.634  28.405  0.00  0.00     0.102 HD
ENDBRANCH   1  11
BRANCH   1  13
ATOM     13  C   UNL d   1       3.391  -2.890  26.248  0.00  0.00     0.015 C 
BRANCH  13  14
ATOM     14  C   UNL d   1       3.680  -1.583  25.492  0.00  0.00     0.002 C 
BRANCH  14  15
ATOM     15  C   UNL d   1       4.561  -1.751  24.250  0.00  0.00     0.009 C 
BRANCH  15  16
ATOM     16  C   UNL d   1       5.878  -2.454  24.570  0.00  0.00     0.102 C 
BRANCH  16  17
ATOM     17  C   UNL d   1       6.946  -1.507  25.065  0.00  0.00     0.215 C 
ATOM     18  N   UNL d   1       7.524  -1.903  26.236  0.00  0.00    -0.370 N 
ATOM     19  H   UNL d   1       7.209  -2.703  26.760  0.00  0.00     0.159 HD
ATOM     20  H   UNL d   1       8.213  -1.289  26.651  0.00  0.00     0.159 HD
ATOM     21  O   UNL d   1       7.280  -0.471  24.505  0.00  0.00    -0.274 OA
ENDBRANCH  16  17
ENDBRANCH  15  16
ENDBRANCH  14  15
ENDBRANCH  13  14
ENDBRANCH   1  13
TORSDOF 12
ENDMDL
MODEL 9
REMARK VINA RESULT:      -4.6      7.322      9.279
REMARK  12 active torsions:
REMARK  status: ('A' for Active; 'I' for Inactive)
REMARK    1  A    between atoms: C_2  and  C_3 
REMARK    2  A    between atoms: C_3  and  C_4 
REMARK    3  A    between atoms: C_4  and  S_6 
REMARK    4  A    between atoms: S_6  and  C_8 
REMARK    5  A    between atoms: C_8  and  C_9 
REMARK    6  A    between atoms: C_9  and  C_10 
REMARK    7  A    between atoms: C_10  and  S_12 
REMARK    8  A    between atoms: C_10  and  C_11 
REMARK    9  A    between atoms: C_11  and  C_13 
REMARK   10  A    between atoms: C_13  and  C_14 
REMARK   11  A    between atoms: C_14  and  C_15 
REMARK   12  A    between atoms: C_15  and  C_16 
REMARK       I    between atoms: C_16  and  N_18 
ROOT
ATOM      1  C   UNL d   1      19.881   7.655  26.305  0.00  0.00     0.045 C 
ENDROOT
BRANCH   1   2
ATOM      2  C   UNL d   1      19.484   7.461  24.829  0.00  0.00     0.025 C 
BRANCH   2   3
ATOM      3  C   UNL d   1      18.069   6.921  24.631  0.00  0.00     0.083 C 
BRANCH   3   4
ATOM      4  S   UNL d   1      17.398   7.454  23.033  0.00  0.00    -0.092 SA
BRANCH   4   5
ATOM      5  C   UNL d   1      15.839   6.622  23.112  0.00  0.00     0.189 C 
ATOM      6  O   UNL d   1      15.725   5.433  22.841  0.00  0.00    -0.285 OA
BRANCH   5   7
ATOM      7  C   UNL d   1      14.693   7.507  23.578  0.00  0.00     0.062 C 
ATOM      8  C   UNL d   1      15.108   8.966  23.393  0.00  0.00     0.018 C 
BRANCH   7   9
ATOM      9  C   UNL d   1      14.326   7.236  25.045  0.00  0.00     0.008 C 
ATOM     10  C   UNL d   1      13.541   8.373  25.687  0.00  0.00     0.006 C 
ENDBRANCH   7   9
ENDBRANCH   5   7
ENDBRANCH   4   5
ENDBRANCH   3   4
ENDBRANCH   2   3
ENDBRANCH   1   2
BRANCH   1  11
ATOM     11  S   UNL d   1      18.430   7.579  27.423  0.00  0.00    -0.177 SA
ATOM     12  H   UNL d   1      17.496   7.382  26.482  0.00  0.00     0.102 HD
ENDBRANCH   1  11
BRANCH   1  13
ATOM     13  C   UNL d   1      20.961   6.671  26.792  0.00  0.00     0.015 C 
BRANCH  13  14
ATOM     14  C   UNL d   1      21.473   6.967  28.212  0.00  0.00     0.002 C 
BRANCH  14  15
ATOM     15  C   UNL d   1      22.080   8.364  28.388  0.00  0.00     0.009 C 
BRANCH  15  16
ATOM     16  C   UNL d   1      21.343   9.181  29.446  0.00  0.00     0.102 C 
BRANCH  16  17
ATOM     17  C   UNL d   1      21.448   8.583  30.830  0.00  0.00     0.215 C 
ATOM     18  N   UNL d   1      20.237   8.382  31.428  0.00  0.00    -0.370 N 
ATOM     19  H   UNL d   1      19.367   8.682  31.019  0.00  0.00     0.159 HD
ATOM     20  H   UNL d   1      20.235   8.031  32.377  0.00  0.00     0.159 HD
ATOM     21  O   UNL d   1      22.496   8.305  31.397  0.00  0.00    -0.274 OA
ENDBRANCH  16  17
ENDBRANCH  15  16
ENDBRANCH  14  15
ENDBRANCH  13  14
ENDBRANCH   1  13
TORSDOF 12
ENDMDL
