MODEL 1
REMARK VINA RESULT:      -3.8      0.000      0.000
REMARK  15 active torsions:
REMARK  status: ('A' for Active; 'I' for Inactive)
REMARK    1  A    between atoms: C_2  and  C_3 
REMARK    2  A    between atoms: C_3  and  C_4 
REMARK    3  A    between atoms: C_4  and  C_5 
REMARK    4  A    between atoms: C_5  and  C_6 
REMARK    5  A    between atoms: C_6  and  C_7 
REMARK    6  A    between atoms: C_7  and  C_8 
REMARK    7  A    between atoms: C_8  and  C_9 
REMARK    8  A    between atoms: C_9  and  C_10 
REMARK    9  A    between atoms: C_10  and  C_11 
REMARK   10  A    between atoms: C_11  and  C_12 
REMARK   11  A    between atoms: C_12  and  C_13 
REMARK   12  A    between atoms: C_13  and  C_14 
REMARK   13  A    between atoms: C_14  and  C_15 
REMARK   14  A    between atoms: C_15  and  C_16 
REMARK   15  A    between atoms: C_16  and  O_18 
ROOT
ATOM      1  C   UNL d   1      27.936  39.249  17.461  0.00  0.00     0.000 C 
ENDROOT
BRANCH   1   2
ATOM      2  C   UNL d   1      28.453  38.800  18.814  0.00  0.00     0.000 C 
BRANCH   2   3
ATOM      3  C   UNL d   1      27.327  38.171  19.612  0.00  0.00     0.000 C 
BRANCH   3   4
ATOM      4  C   UNL d   1      26.243  37.675  18.673  0.00  0.00     0.000 C 
BRANCH   4   5
ATOM      5  C   UNL d   1      26.100  36.171  18.800  0.00  0.00     0.000 C 
BRANCH   5   6
ATOM      6  C   UNL d   1      25.339  35.623  17.608  0.00  0.00     0.000 C 
BRANCH   6   7
ATOM      7  C   UNL d   1      25.435  36.589  16.443  0.00  0.00     0.000 C 
BRANCH   7   8
ATOM      8  C   UNL d   1      24.973  35.911  15.167  0.00  0.00    -0.000 C 
BRANCH   8   9
ATOM      9  C   UNL d   1      23.542  35.421  15.321  0.00  0.00    -0.005 C 
ATOM     10  C   UNL d   1      23.391  34.045  14.705  0.00  0.00     0.005 C 
ENDBRANCH   8   9
ENDBRANCH   7   8
ENDBRANCH   6   7
ENDBRANCH   5   6
ENDBRANCH   4   5
ENDBRANCH   3   4
ENDBRANCH   2   3
ENDBRANCH   1   2
BRANCH   1  11
ATOM     11  C   UNL d   1      29.024  39.090  16.417  0.00  0.00     0.000 C 
BRANCH  11  12
ATOM     12  C   UNL d   1      28.651  37.986  15.446  0.00  0.00     0.000 C 
BRANCH  12  13
ATOM     13  C   UNL d   1      29.615  36.820  15.588  0.00  0.00     0.001 C 
BRANCH  13  14
ATOM     14  C   UNL d   1      29.066  35.814  16.588  0.00  0.00     0.010 C 
BRANCH  14  15
ATOM     15  C   UNL d   1      30.035  35.593  17.751  0.00  0.00     0.110 C 
BRANCH  15  16
ATOM     16  C   UNL d   1      30.993  34.455  17.459  0.00  0.00     0.139 C 
ATOM     17  O   UNL d   1      32.049  34.602  16.885  0.00  0.00    -0.650 OA
BRANCH  16  18
ATOM     18  O   UNL d   1      30.593  33.242  17.886  0.00  0.00    -0.776 OA
ATOM     19  H   UNL d   1      30.132  32.653  17.261  0.00  0.00     0.167 HD
ENDBRANCH  16  18
ENDBRANCH  15  16
ENDBRANCH  14  15
ENDBRANCH  13  14
ENDBRANCH  12  13
ENDBRANCH  11  12
ENDBRANCH   1  11
TORSDOF 15
ENDMDL
MODEL 2
REMARK VINA RESULT:      -3.7     26.684     28.175
REMARK  15 active torsions:
REMARK  status: ('A' for Active; 'I' for Inactive)
REMARK    1  A    between atoms: C_2  and  C_3 
REMARK    2  A    between atoms: C_3  and  C_4 
REMARK    3  A    between atoms: C_4  and  C_5 
REMARK    4  A    between atoms: C_5  and  C_6 
REMARK    5  A    between atoms: C_6  and  C_7 
REMARK    6  A    between atoms: C_7  and  C_8 
REMARK    7  A    between atoms: C_8  and  C_9 
REMARK    8  A    between atoms: C_9  and  C_10 
REMARK    9  A    between atoms: C_10  and  C_11 
REMARK   10  A    between atoms: C_11  and  C_12 
REMARK   11  A    between atoms: C_12  and  C_13 
REMARK   12  A    between atoms: C_13  and  C_14 
REMARK   13  A    between atoms: C_14  and  C_15 
REMARK   14  A    between atoms: C_15  and  C_16 
REMARK   15  A    between atoms: C_16  and  O_18 
ROOT
ATOM      1  C   UNL d   1       0.540  34.777   9.560  0.00  0.00     0.000 C 
ENDROOT
BRANCH   1   2
ATOM      2  C   UNL d   1      -0.355  34.673  10.780  0.00  0.00     0.000 C 
BRANCH   2   3
ATOM      3  C   UNL d   1       0.483  34.757  12.042  0.00  0.00     0.000 C 
BRANCH   3   4
ATOM      4  C   UNL d   1      -0.391  35.161  13.214  0.00  0.00     0.000 C 
BRANCH   4   5
ATOM      5  C   UNL d   1      -0.915  36.568  13.005  0.00  0.00     0.000 C 
BRANCH   5   6
ATOM      6  C   UNL d   1       0.244  37.543  12.923  0.00  0.00     0.000 C 
BRANCH   6   7
ATOM      7  C   UNL d   1       0.018  38.520  11.785  0.00  0.00     0.000 C 
BRANCH   7   8
ATOM      8  C   UNL d   1       1.047  38.291  10.692  0.00  0.00    -0.000 C 
BRANCH   8   9
ATOM      9  C   UNL d   1       0.552  38.868   9.375  0.00  0.00    -0.005 C 
ATOM     10  C   UNL d   1      -0.746  38.201   8.969  0.00  0.00     0.005 C 
ENDBRANCH   8   9
ENDBRANCH   7   8
ENDBRANCH   6   7
ENDBRANCH   5   6
ENDBRANCH   4   5
ENDBRANCH   3   4
ENDBRANCH   2   3
ENDBRANCH   1   2
BRANCH   1  11
ATOM     11  C   UNL d   1       1.993  34.668   9.978  0.00  0.00     0.000 C 
BRANCH  11  12
ATOM     12  C   UNL d   1       2.827  35.677   9.213  0.00  0.00     0.000 C 
BRANCH  12  13
ATOM     13  C   UNL d   1       2.206  35.942   7.851  0.00  0.00     0.001 C 
BRANCH  13  14
ATOM     14  C   UNL d   1       3.295  36.274   6.843  0.00  0.00     0.010 C 
BRANCH  14  15
ATOM     15  C   UNL d   1       3.011  37.596   6.126  0.00  0.00     0.110 C 
BRANCH  15  16
ATOM     16  C   UNL d   1       1.653  37.577   5.456  0.00  0.00     0.139 C 
ATOM     17  O   UNL d   1       0.808  38.427   5.635  0.00  0.00    -0.650 OA
BRANCH  16  18
ATOM     18  O   UNL d   1       1.432  36.536   4.631  0.00  0.00    -0.776 OA
ATOM     19  H   UNL d   1       0.623  36.005   4.751  0.00  0.00     0.167 HD
ENDBRANCH  16  18
ENDBRANCH  15  16
ENDBRANCH  14  15
ENDBRANCH  13  14
ENDBRANCH  12  13
ENDBRANCH  11  12
ENDBRANCH   1  11
TORSDOF 15
ENDMDL
MODEL 3
REMARK VINA RESULT:      -3.7      2.594      5.334
REMARK  15 active torsions:
REMARK  status: ('A' for Active; 'I' for Inactive)
REMARK    1  A    between atoms: C_2  and  C_3 
REMARK    2  A    between atoms: C_3  and  C_4 
REMARK    3  A    between atoms: C_4  and  C_5 
REMARK    4  A    between atoms: C_5  and  C_6 
REMARK    5  A    between atoms: C_6  and  C_7 
REMARK    6  A    between atoms: C_7  and  C_8 
REMARK    7  A    between atoms: C_8  and  C_9 
REMARK    8  A    between atoms: C_9  and  C_10 
REMARK    9  A    between atoms: C_10  and  C_11 
REMARK   10  A    between atoms: C_11  and  C_12 
REMARK   11  A    between atoms: C_12  and  C_13 
REMARK   12  A    between atoms: C_13  and  C_14 
REMARK   13  A    between atoms: C_14  and  C_15 
REMARK   14  A    between atoms: C_15  and  C_16 
REMARK   15  A    between atoms: C_16  and  O_18 
ROOT
ATOM      1  C   UNL d   1      29.872  35.818  17.126  0.00  0.00     0.000 C 
ENDROOT
BRANCH   1   2
ATOM      2  C   UNL d   1      28.405  35.475  16.952  0.00  0.00     0.000 C 
BRANCH   2   3
ATOM      3  C   UNL d   1      27.699  36.595  16.213  0.00  0.00     0.000 C 
BRANCH   3   4
ATOM      4  C   UNL d   1      28.561  37.078  15.062  0.00  0.00     0.000 C 
BRANCH   4   5
ATOM      5  C   UNL d   1      28.639  38.592  15.076  0.00  0.00     0.000 C 
BRANCH   5   6
ATOM      6  C   UNL d   1      28.300  39.113  16.460  0.00  0.00     0.000 C 
BRANCH   6   7
ATOM      7  C   UNL d   1      29.392  40.048  16.943  0.00  0.00     0.000 C 
BRANCH   7   8
ATOM      8  C   UNL d   1      29.936  39.566  18.275  0.00  0.00    -0.000 C 
BRANCH   8   9
ATOM      9  C   UNL d   1      28.851  38.836  19.052  0.00  0.00    -0.005 C 
ATOM     10  C   UNL d   1      28.626  39.508  20.391  0.00  0.00     0.005 C 
ENDBRANCH   8   9
ENDBRANCH   7   8
ENDBRANCH   6   7
ENDBRANCH   5   6
ENDBRANCH   4   5
ENDBRANCH   3   4
ENDBRANCH   2   3
ENDBRANCH   1   2
BRANCH   1  11
ATOM     11  C   UNL d   1      30.321  35.456  18.528  0.00  0.00     0.000 C 
BRANCH  11  12
ATOM     12  C   UNL d   1      29.193  34.769  19.271  0.00  0.00     0.000 C 
BRANCH  12  13
ATOM     13  C   UNL d   1      29.153  35.245  20.715  0.00  0.00     0.001 C 
BRANCH  13  14
ATOM     14  C   UNL d   1      29.602  34.125  21.641  0.00  0.00     0.010 C 
BRANCH  14  15
ATOM     15  C   UNL d   1      31.055  34.314  22.083  0.00  0.00     0.110 C 
BRANCH  15  16
ATOM     16  C   UNL d   1      31.944  33.216  21.536  0.00  0.00     0.139 C 
ATOM     17  O   UNL d   1      32.308  33.164  20.382  0.00  0.00    -0.650 OA
BRANCH  16  18
ATOM     18  O   UNL d   1      32.314  32.277  22.428  0.00  0.00    -0.776 OA
ATOM     19  H   UNL d   1      32.950  32.518  23.126  0.00  0.00     0.167 HD
ENDBRANCH  16  18
ENDBRANCH  15  16
ENDBRANCH  14  15
ENDBRANCH  13  14
ENDBRANCH  12  13
ENDBRANCH  11  12
ENDBRANCH   1  11
TORSDOF 15
ENDMDL
MODEL 4
REMARK VINA RESULT:      -3.6      3.233      5.569
REMARK  15 active torsions:
REMARK  status: ('A' for Active; 'I' for Inactive)
REMARK    1  A    between atoms: C_2  and  C_3 
REMARK    2  A    between atoms: C_3  and  C_4 
REMARK    3  A    between atoms: C_4  and  C_5 
REMARK    4  A    between atoms: C_5  and  C_6 
REMARK    5  A    between atoms: C_6  and  C_7 
REMARK    6  A    between atoms: C_7  and  C_8 
REMARK    7  A    between atoms: C_8  and  C_9 
REMARK    8  A    between atoms: C_9  and  C_10 
REMARK    9  A    between atoms: C_10  and  C_11 
REMARK   10  A    between atoms: C_11  and  C_12 
REMARK   11  A    between atoms: C_12  and  C_13 
REMARK   12  A    between atoms: C_13  and  C_14 
REMARK   13  A    between atoms: C_14  and  C_15 
REMARK   14  A    between atoms: C_15  and  C_16 
REMARK   15  A    between atoms: C_16  and  O_18 
ROOT
ATOM      1  C   UNL d   1      29.473  38.316  17.216  0.00  0.00     0.000 C 
ENDROOT
BRANCH   1   2
ATOM      2  C   UNL d   1      29.602  38.411  18.723  0.00  0.00     0.000 C 
BRANCH   2   3
ATOM      3  C   UNL d   1      28.225  38.483  19.355  0.00  0.00     0.000 C 
BRANCH   3   4
ATOM      4  C   UNL d   1      27.945  37.207  20.126  0.00  0.00     0.000 C 
BRANCH   4   5
ATOM      5  C   UNL d   1      28.980  36.156  19.777  0.00  0.00     0.000 C 
BRANCH   5   6
ATOM      6  C   UNL d   1      28.310  34.803  19.625  0.00  0.00     0.000 C 
BRANCH   6   7
ATOM      7  C   UNL d   1      29.153  33.731  20.290  0.00  0.00     0.000 C 
BRANCH   7   8
ATOM      8  C   UNL d   1      29.485  34.142  21.713  0.00  0.00    -0.000 C 
BRANCH   8   9
ATOM      9  C   UNL d   1      30.937  33.813  22.028  0.00  0.00    -0.005 C 
ATOM     10  C   UNL d   1      31.562  34.933  22.834  0.00  0.00     0.005 C 
ENDBRANCH   8   9
ENDBRANCH   7   8
ENDBRANCH   6   7
ENDBRANCH   5   6
ENDBRANCH   4   5
ENDBRANCH   3   4
ENDBRANCH   2   3
ENDBRANCH   1   2
BRANCH   1  11
ATOM     11  C   UNL d   1      28.905  39.609  16.666  0.00  0.00     0.000 C 
BRANCH  11  12
ATOM     12  C   UNL d   1      27.692  39.317  15.806  0.00  0.00     0.000 C 
BRANCH  12  13
ATOM     13  C   UNL d   1      26.418  39.542  16.606  0.00  0.00     0.001 C 
BRANCH  13  14
ATOM     14  C   UNL d   1      25.470  38.370  16.407  0.00  0.00     0.010 C 
BRANCH  14  15
ATOM     15  C   UNL d   1      26.213  37.033  16.455  0.00  0.00     0.110 C 
BRANCH  15  16
ATOM     16  C   UNL d   1      25.793  36.130  15.314  0.00  0.00     0.139 C 
ATOM     17  O   UNL d   1      24.647  35.793  15.115  0.00  0.00    -0.650 OA
BRANCH  16  18
ATOM     18  O   UNL d   1      26.792  35.713  14.512  0.00  0.00    -0.776 OA
ATOM     19  H   UNL d   1      27.702  35.702  14.862  0.00  0.00     0.167 HD
ENDBRANCH  16  18
ENDBRANCH  15  16
ENDBRANCH  14  15
ENDBRANCH  13  14
ENDBRANCH  12  13
ENDBRANCH  11  12
ENDBRANCH   1  11
TORSDOF 15
ENDMDL
MODEL 5
REMARK VINA RESULT:      -3.4     27.747     30.059
REMARK  15 active torsions:
REMARK  status: ('A' for Active; 'I' for Inactive)
REMARK    1  A    between atoms: C_2  and  C_3 
REMARK    2  A    between atoms: C_3  and  C_4 
REMARK    3  A    between atoms: C_4  and  C_5 
REMARK    4  A    between atoms: C_5  and  C_6 
REMARK    5  A    between atoms: C_6  and  C_7 
REMARK    6  A    between atoms: C_7  and  C_8 
REMARK    7  A    between atoms: C_8  and  C_9 
REMARK    8  A    between atoms: C_9  and  C_10 
REMARK    9  A    between atoms: C_10  and  C_11 
REMARK   10  A    between atoms: C_11  and  C_12 
REMARK   11  A    between atoms: C_12  and  C_13 
REMARK   12  A    between atoms: C_13  and  C_14 
REMARK   13  A    between atoms: C_14  and  C_15 
REMARK   14  A    between atoms: C_15  and  C_16 
REMARK   15  A    between atoms: C_16  and  O_18 
ROOT
ATOM      1  C   UNL d   1      -1.686  33.632  16.425  0.00  0.00     0.000 C 
ENDROOT
BRANCH   1   2
ATOM      2  C   UNL d   1      -2.383  34.953  16.170  0.00  0.00     0.000 C 
BRANCH   2   3
ATOM      3  C   UNL d   1      -3.471  34.769  15.129  0.00  0.00     0.000 C 
BRANCH   3   4
ATOM      4  C   UNL d   1      -3.279  35.765  14.001  0.00  0.00     0.000 C 
BRANCH   4   5
ATOM      5  C   UNL d   1      -1.818  36.159  13.905  0.00  0.00     0.000 C 
BRANCH   5   6
ATOM      6  C   UNL d   1      -1.702  37.603  13.454  0.00  0.00     0.000 C 
BRANCH   6   7
ATOM      7  C   UNL d   1      -0.287  37.887  12.987  0.00  0.00     0.000 C 
BRANCH   7   8
ATOM      8  C   UNL d   1       0.413  36.587  12.631  0.00  0.00    -0.000 C 
BRANCH   8   9
ATOM      9  C   UNL d   1       0.605  36.490  11.126  0.00  0.00    -0.005 C 
ATOM     10  C   UNL d   1       1.227  37.766  10.596  0.00  0.00     0.005 C 
ENDBRANCH   8   9
ENDBRANCH   7   8
ENDBRANCH   6   7
ENDBRANCH   5   6
ENDBRANCH   4   5
ENDBRANCH   3   4
ENDBRANCH   2   3
ENDBRANCH   1   2
BRANCH   1  11
ATOM     11  C   UNL d   1      -2.678  32.493  16.295  0.00  0.00     0.000 C 
BRANCH  11  12
ATOM     12  C   UNL d   1      -3.325  32.216  17.638  0.00  0.00     0.000 C 
BRANCH  12  13
ATOM     13  C   UNL d   1      -2.255  31.983  18.694  0.00  0.00     0.001 C 
BRANCH  13  14
ATOM     14  C   UNL d   1      -2.542  32.840  19.917  0.00  0.00     0.010 C 
BRANCH  14  15
ATOM     15  C   UNL d   1      -1.523  33.973  20.058  0.00  0.00     0.110 C 
BRANCH  15  16
ATOM     16  C   UNL d   1      -2.206  35.325  20.098  0.00  0.00     0.139 C 
ATOM     17  O   UNL d   1      -3.306  35.531  19.635  0.00  0.00    -0.650 OA
BRANCH  16  18
ATOM     18  O   UNL d   1      -1.503  36.308  20.693  0.00  0.00    -0.776 OA
ATOM     19  H   UNL d   1      -0.538  36.341  20.560  0.00  0.00     0.167 HD
ENDBRANCH  16  18
ENDBRANCH  15  16
ENDBRANCH  14  15
ENDBRANCH  13  14
ENDBRANCH  12  13
ENDBRANCH  11  12
ENDBRANCH   1  11
TORSDOF 15
ENDMDL
MODEL 6
REMARK VINA RESULT:      -3.4     27.999     29.680
REMARK  15 active torsions:
REMARK  status: ('A' for Active; 'I' for Inactive)
REMARK    1  A    between atoms: C_2  and  C_3 
REMARK    2  A    between atoms: C_3  and  C_4 
REMARK    3  A    between atoms: C_4  and  C_5 
REMARK    4  A    between atoms: C_5  and  C_6 
REMARK    5  A    between atoms: C_6  and  C_7 
REMARK    6  A    between atoms: C_7  and  C_8 
REMARK    7  A    between atoms: C_8  and  C_9 
REMARK    8  A    between atoms: C_9  and  C_10 
REMARK    9  A    between atoms: C_10  and  C_11 
REMARK   10  A    between atoms: C_11  and  C_12 
REMARK   11  A    between atoms: C_12  and  C_13 
REMARK   12  A    between atoms: C_13  and  C_14 
REMARK   13  A    between atoms: C_14  and  C_15 
REMARK   14  A    between atoms: C_15  and  C_16 
REMARK   15  A    between atoms: C_16  and  O_18 
ROOT
ATOM      1  C   UNL d   1      -2.482  34.334  16.168  0.00  0.00     0.000 C 
ENDROOT
BRANCH   1   2
ATOM      2  C   UNL d   1      -1.717  33.070  16.508  0.00  0.00     0.000 C 
BRANCH   2   3
ATOM      3  C   UNL d   1      -0.788  33.329  17.678  0.00  0.00     0.000 C 
BRANCH   3   4
ATOM      4  C   UNL d   1      -0.905  32.202  18.687  0.00  0.00     0.000 C 
BRANCH   4   5
ATOM      5  C   UNL d   1      -2.293  32.198  19.296  0.00  0.00     0.000 C 
BRANCH   5   6
ATOM      6  C   UNL d   1      -2.914  30.821  19.154  0.00  0.00     0.000 C 
BRANCH   6   7
ATOM      7  C   UNL d   1      -1.846  29.805  18.796  0.00  0.00     0.000 C 
BRANCH   7   8
ATOM      8  C   UNL d   1      -2.268  29.019  17.568  0.00  0.00    -0.000 C 
BRANCH   8   9
ATOM      9  C   UNL d   1      -1.200  29.119  16.490  0.00  0.00    -0.005 C 
ATOM     10  C   UNL d   1      -1.801  29.661  15.209  0.00  0.00     0.005 C 
ENDBRANCH   8   9
ENDBRANCH   7   8
ENDBRANCH   6   7
ENDBRANCH   5   6
ENDBRANCH   4   5
ENDBRANCH   3   4
ENDBRANCH   2   3
ENDBRANCH   1   2
BRANCH   1  11
ATOM     11  C   UNL d   1      -1.885  34.981  14.934  0.00  0.00     0.000 C 
BRANCH  11  12
ATOM     12  C   UNL d   1      -2.825  36.043  14.401  0.00  0.00     0.000 C 
BRANCH  12  13
ATOM     13  C   UNL d   1      -2.047  37.302  14.051  0.00  0.00     0.001 C 
BRANCH  13  14
ATOM     14  C   UNL d   1      -0.838  36.941  13.200  0.00  0.00     0.010 C 
BRANCH  14  15
ATOM     15  C   UNL d   1       0.134  38.116  13.083  0.00  0.00     0.110 C 
BRANCH  15  16
ATOM     16  C   UNL d   1       0.400  38.466  11.633  0.00  0.00     0.139 C 
ATOM     17  O   UNL d   1       1.168  37.850  10.927  0.00  0.00    -0.650 OA
BRANCH  16  18
ATOM     18  O   UNL d   1      -0.282  39.528  11.162  0.00  0.00    -0.776 OA
ATOM     19  H   UNL d   1      -0.743  39.449  10.307  0.00  0.00     0.167 HD
ENDBRANCH  16  18
ENDBRANCH  15  16
ENDBRANCH  14  15
ENDBRANCH  13  14
ENDBRANCH  12  13
ENDBRANCH  11  12
ENDBRANCH   1  11
TORSDOF 15
ENDMDL
MODEL 7
REMARK VINA RESULT:      -3.3     22.541     25.038
REMARK  15 active torsions:
REMARK  status: ('A' for Active; 'I' for Inactive)
REMARK    1  A    between atoms: C_2  and  C_3 
REMARK    2  A    between atoms: C_3  and  C_4 
REMARK    3  A    between atoms: C_4  and  C_5 
REMARK    4  A    between atoms: C_5  and  C_6 
REMARK    5  A    between atoms: C_6  and  C_7 
REMARK    6  A    between atoms: C_7  and  C_8 
REMARK    7  A    between atoms: C_8  and  C_9 
REMARK    8  A    between atoms: C_9  and  C_10 
REMARK    9  A    between atoms: C_10  and  C_11 
REMARK   10  A    between atoms: C_11  and  C_12 
REMARK   11  A    between atoms: C_12  and  C_13 
REMARK   12  A    between atoms: C_13  and  C_14 
REMARK   13  A    between atoms: C_14  and  C_15 
REMARK   14  A    between atoms: C_15  and  C_16 
REMARK   15  A    between atoms: C_16  and  O_18 
ROOT
ATOM      1  C   UNL d   1      16.922  17.494  27.080  0.00  0.00     0.000 C 
ENDROOT
BRANCH   1   2
ATOM      2  C   UNL d   1      17.172  16.646  28.311  0.00  0.00     0.000 C 
BRANCH   2   3
ATOM      3  C   UNL d   1      18.195  15.571  27.996  0.00  0.00     0.000 C 
BRANCH   3   4
ATOM      4  C   UNL d   1      17.575  14.199  28.184  0.00  0.00     0.000 C 
BRANCH   4   5
ATOM      5  C   UNL d   1      16.155  14.341  28.697  0.00  0.00     0.000 C 
BRANCH   5   6
ATOM      6  C   UNL d   1      15.219  13.483  27.867  0.00  0.00     0.000 C 
BRANCH   6   7
ATOM      7  C   UNL d   1      13.957  14.259  27.543  0.00  0.00     0.000 C 
BRANCH   7   8
ATOM      8  C   UNL d   1      14.195  15.160  26.344  0.00  0.00    -0.000 C 
BRANCH   8   9
ATOM      9  C   UNL d   1      14.753  14.351  25.183  0.00  0.00    -0.005 C 
ATOM     10  C   UNL d   1      14.252  14.912  23.868  0.00  0.00     0.005 C 
ENDBRANCH   8   9
ENDBRANCH   7   8
ENDBRANCH   6   7
ENDBRANCH   5   6
ENDBRANCH   4   5
ENDBRANCH   3   4
ENDBRANCH   2   3
ENDBRANCH   1   2
BRANCH   1  11
ATOM     11  C   UNL d   1      18.230  17.751  26.357  0.00  0.00     0.000 C 
BRANCH  11  12
ATOM     12  C   UNL d   1      17.988  17.824  24.862  0.00  0.00     0.000 C 
BRANCH  12  13
ATOM     13  C   UNL d   1      17.567  16.462  24.334  0.00  0.00     0.001 C 
BRANCH  13  14
ATOM     14  C   UNL d   1      17.653  16.448  22.816  0.00  0.00     0.010 C 
BRANCH  14  15
ATOM     15  C   UNL d   1      17.087  17.734  22.211  0.00  0.00     0.110 C 
BRANCH  15  16
ATOM     16  C   UNL d   1      16.093  17.433  21.108  0.00  0.00     0.139 C 
ATOM     17  O   UNL d   1      14.949  17.828  21.114  0.00  0.00    -0.650 OA
BRANCH  16  18
ATOM     18  O   UNL d   1      16.568  16.681  20.096  0.00  0.00    -0.776 OA
ATOM     19  H   UNL d   1      17.401  16.945  19.665  0.00  0.00     0.167 HD
ENDBRANCH  16  18
ENDBRANCH  15  16
ENDBRANCH  14  15
ENDBRANCH  13  14
ENDBRANCH  12  13
ENDBRANCH  11  12
ENDBRANCH   1  11
TORSDOF 15
ENDMDL
MODEL 8
REMARK VINA RESULT:      -3.2     27.071     28.898
REMARK  15 active torsions:
REMARK  status: ('A' for Active; 'I' for Inactive)
REMARK    1  A    between atoms: C_2  and  C_3 
REMARK    2  A    between atoms: C_3  and  C_4 
REMARK    3  A    between atoms: C_4  and  C_5 
REMARK    4  A    between atoms: C_5  and  C_6 
REMARK    5  A    between atoms: C_6  and  C_7 
REMARK    6  A    between atoms: C_7  and  C_8 
REMARK    7  A    between atoms: C_8  and  C_9 
REMARK    8  A    between atoms: C_9  and  C_10 
REMARK    9  A    between atoms: C_10  and  C_11 
REMARK   10  A    between atoms: C_11  and  C_12 
REMARK   11  A    between atoms: C_12  and  C_13 
REMARK   12  A    between atoms: C_13  and  C_14 
REMARK   13  A    between atoms: C_14  and  C_15 
REMARK   14  A    between atoms: C_15  and  C_16 
REMARK   15  A    between atoms: C_16  and  O_18 
ROOT
ATOM      1  C   UNL d   1      -2.383  35.997  12.388  0.00  0.00     0.000 C 
ENDROOT
BRANCH   1   2
ATOM      2  C   UNL d   1      -1.966  37.386  12.830  0.00  0.00     0.000 C 
BRANCH   2   3
ATOM      3  C   UNL d   1      -0.532  37.362  13.322  0.00  0.00     0.000 C 
BRANCH   3   4
ATOM      4  C   UNL d   1       0.228  38.545  12.753  0.00  0.00     0.000 C 
BRANCH   4   5
ATOM      5  C   UNL d   1       0.299  38.434  11.242  0.00  0.00     0.000 C 
BRANCH   5   6
ATOM      6  C   UNL d   1       1.268  37.334  10.852  0.00  0.00     0.000 C 
BRANCH   6   7
ATOM      7  C   UNL d   1       0.888  36.766   9.497  0.00  0.00     0.000 C 
BRANCH   7   8
ATOM      8  C   UNL d   1       0.587  35.283   9.622  0.00  0.00    -0.000 C 
BRANCH   8   9
ATOM      9  C   UNL d   1       1.882  34.494   9.743  0.00  0.00    -0.005 C 
ATOM     10  C   UNL d   1       1.832  33.594  10.960  0.00  0.00     0.005 C 
ENDBRANCH   8   9
ENDBRANCH   7   8
ENDBRANCH   6   7
ENDBRANCH   5   6
ENDBRANCH   4   5
ENDBRANCH   3   4
ENDBRANCH   2   3
ENDBRANCH   1   2
BRANCH   1  11
ATOM     11  C   UNL d   1      -1.280  35.006  12.702  0.00  0.00     0.000 C 
BRANCH  11  12
ATOM     12  C   UNL d   1      -1.831  33.867  13.537  0.00  0.00     0.000 C 
BRANCH  12  13
ATOM     13  C   UNL d   1      -1.288  33.949  14.955  0.00  0.00     0.001 C 
BRANCH  13  14
ATOM     14  C   UNL d   1      -2.439  34.068  15.942  0.00  0.00     0.010 C 
BRANCH  14  15
ATOM     15  C   UNL d   1      -1.956  34.561  17.308  0.00  0.00     0.110 C 
BRANCH  15  16
ATOM     16  C   UNL d   1      -1.091  33.523  17.993  0.00  0.00     0.139 C 
ATOM     17  O   UNL d   1      -1.417  32.364  18.126  0.00  0.00    -0.650 OA
BRANCH  16  18
ATOM     18  O   UNL d   1       0.090  33.975  18.457  0.00  0.00    -0.776 OA
ATOM     19  H   UNL d   1       0.240  34.937  18.503  0.00  0.00     0.167 HD
ENDBRANCH  16  18
ENDBRANCH  15  16
ENDBRANCH  14  15
ENDBRANCH  13  14
ENDBRANCH  12  13
ENDBRANCH  11  12
ENDBRANCH   1  11
TORSDOF 15
ENDMDL
MODEL 9
REMARK VINA RESULT:      -3.2     27.407     29.317
REMARK  15 active torsions:
REMARK  status: ('A' for Active; 'I' for Inactive)
REMARK    1  A    between atoms: C_2  and  C_3 
REMARK    2  A    between atoms: C_3  and  C_4 
REMARK    3  A    between atoms: C_4  and  C_5 
REMARK    4  A    between atoms: C_5  and  C_6 
REMARK    5  A    between atoms: C_6  and  C_7 
REMARK    6  A    between atoms: C_7  and  C_8 
REMARK    7  A    between atoms: C_8  and  C_9 
REMARK    8  A    between atoms: C_9  and  C_10 
REMARK    9  A    between atoms: C_10  and  C_11 
REMARK   10  A    between atoms: C_11  and  C_12 
REMARK   11  A    between atoms: C_12  and  C_13 
REMARK   12  A    between atoms: C_13  and  C_14 
REMARK   13  A    between atoms: C_14  and  C_15 
REMARK   14  A    between atoms: C_15  and  C_16 
REMARK   15  A    between atoms: C_16  and  O_18 
ROOT
ATOM      1  C   UNL d   1      -2.009  34.063  13.349  0.00  0.00     0.000 C 
ENDROOT
BRANCH   1   2
ATOM      2  C   UNL d   1      -1.194  34.809  12.310  0.00  0.00     0.000 C 
BRANCH   2   3
ATOM      3  C   UNL d   1      -0.161  35.682  12.996  0.00  0.00     0.000 C 
BRANCH   3   4
ATOM      4  C   UNL d   1      -0.524  37.144  12.820  0.00  0.00     0.000 C 
BRANCH   4   5
ATOM      5  C   UNL d   1       0.675  37.913  12.301  0.00  0.00     0.000 C 
BRANCH   5   6
ATOM      6  C   UNL d   1       0.601  38.024  10.789  0.00  0.00     0.000 C 
BRANCH   6   7
ATOM      7  C   UNL d   1       1.629  37.109  10.153  0.00  0.00     0.000 C 
BRANCH   7   8
ATOM      8  C   UNL d   1       0.943  36.125   9.222  0.00  0.00    -0.000 C 
BRANCH   8   9
ATOM      9  C   UNL d   1       1.827  34.907   9.002  0.00  0.00    -0.005 C 
ATOM     10  C   UNL d   1       1.975  34.130  10.293  0.00  0.00     0.005 C 
ENDBRANCH   8   9
ENDBRANCH   7   8
ENDBRANCH   6   7
ENDBRANCH   5   6
ENDBRANCH   4   5
ENDBRANCH   3   4
ENDBRANCH   2   3
ENDBRANCH   1   2
BRANCH   1  11
ATOM     11  C   UNL d   1      -1.258  34.031  14.666  0.00  0.00     0.000 C 
BRANCH  11  12
ATOM     12  C   UNL d   1      -2.140  33.441  15.749  0.00  0.00     0.000 C 
BRANCH  12  13
ATOM     13  C   UNL d   1      -1.678  33.922  17.116  0.00  0.00     0.001 C 
BRANCH  13  14
ATOM     14  C   UNL d   1      -1.100  32.757  17.905  0.00  0.00     0.010 C 
BRANCH  14  15
ATOM     15  C   UNL d   1      -2.204  31.901  18.529  0.00  0.00     0.110 C 
BRANCH  15  16
ATOM     16  C   UNL d   1      -2.997  32.688  19.553  0.00  0.00     0.139 C 
ATOM     17  O   UNL d   1      -2.527  33.096  20.592  0.00  0.00    -0.650 OA
BRANCH  16  18
ATOM     18  O   UNL d   1      -4.286  32.913  19.233  0.00  0.00    -0.776 OA
ATOM     19  H   UNL d   1      -4.616  32.602  18.370  0.00  0.00     0.167 HD
ENDBRANCH  16  18
ENDBRANCH  15  16
ENDBRANCH  14  15
ENDBRANCH  13  14
ENDBRANCH  12  13
ENDBRANCH  11  12
ENDBRANCH   1  11
TORSDOF 15
ENDMDL
