MODEL 1
REMARK VINA RESULT:      -6.8      0.000      0.000
REMARK  1 active torsions:
REMARK  status: ('A' for Active; 'I' for Inactive)
REMARK    1  A    between atoms: C_2  and  O_1 
ROOT
ATOM      1  C   UNL d   1     -21.326 -10.282  25.705  0.00  0.00     0.264 C 
ATOM      2  O   UNL d   1     -21.093 -11.392  26.522  0.00  0.00    -0.328 OA
ATOM      3  C   UNL d   1     -20.608  -9.028  26.227  0.00  0.00     0.044 C 
ATOM      4  C   UNL d   1     -19.718 -11.694  26.759  0.00  0.00     0.305 C 
ATOM      5  C   UNL d   1     -20.958  -8.780  27.711  0.00  0.00     0.015 C 
ATOM      6  C   UNL d   1     -19.095  -9.167  25.944  0.00  0.00     0.037 C 
ATOM      7  O   UNL d   1     -19.415 -13.146  26.109  0.00  0.00    -0.320 OA
ATOM      8  C   UNL d   1     -18.559 -10.530  26.336  0.00  0.00     0.154 C 
ATOM      9  C   UNL d   1     -18.255  -8.062  26.663  0.00  0.00     0.009 C 
ATOM     10  C   UNL d   1     -18.054 -13.576  26.447  0.00  0.00     0.196 C 
ATOM     11  O   UNL d   1     -18.127 -11.518  25.524  0.00  0.00    -0.221 OA
ATOM     12  C   UNL d   1     -16.901 -10.394  26.448  0.00  0.00     0.033 C 
ATOM     13  C   UNL d   1     -17.560  -8.531  27.973  0.00  0.00     0.005 C 
ATOM     14  C   UNL d   1     -18.118 -14.674  27.481  0.00  0.00     0.082 C 
ATOM     15  C   UNL d   1     -16.660 -13.384  25.691  0.00  0.00     0.071 C 
ATOM     16  O   UNL d   1     -17.710 -12.384  26.964  0.00  0.00    -0.200 OA
ATOM     17  C   UNL d   1     -15.923 -11.773  25.856  0.00  0.00     0.014 C 
ATOM     18  C   UNL d   1     -16.633  -9.775  27.815  0.00  0.00    -0.011 C 
ATOM     19  C   UNL d   1     -15.170  -9.416  28.041  0.00  0.00     0.010 C 
ENDROOT
BRANCH   1  20
ATOM     20  O   UNL d   1     -22.727 -10.066  25.746  0.00  0.00    -0.371 OA
ATOM     21  H   UNL d   1     -23.066 -10.832  25.264  0.00  0.00     0.212 HD
ENDBRANCH   1  20
TORSDOF 1
ENDMDL
MODEL 2
REMARK VINA RESULT:      -6.7     26.532     29.066
REMARK  1 active torsions:
REMARK  status: ('A' for Active; 'I' for Inactive)
REMARK    1  A    between atoms: C_2  and  O_1 
ROOT
ATOM      1  C   UNL d   1     -33.091  13.302  12.256  0.00  0.00     0.264 C 
ATOM      2  O   UNL d   1     -32.676  13.734  13.519  0.00  0.00    -0.328 OA
ATOM      3  C   UNL d   1     -31.901  12.898  11.371  0.00  0.00     0.044 C 
ATOM      4  C   UNL d   1     -31.842  12.819  14.230  0.00  0.00     0.305 C 
ATOM      5  C   UNL d   1     -30.855  14.033  11.317  0.00  0.00     0.015 C 
ATOM      6  C   UNL d   1     -31.348  11.544  11.870  0.00  0.00     0.037 C 
ATOM      7  O   UNL d   1     -32.641  12.359  15.561  0.00  0.00    -0.320 OA
ATOM      8  C   UNL d   1     -31.179  11.511  13.376  0.00  0.00     0.154 C 
ATOM      9  C   UNL d   1     -29.985  11.178  11.196  0.00  0.00     0.009 C 
ATOM     10  C   UNL d   1     -31.776  11.530  16.408  0.00  0.00     0.196 C 
ATOM     11  O   UNL d   1     -31.890  10.797  14.276  0.00  0.00    -0.221 OA
ATOM     12  C   UNL d   1     -30.153  10.246  13.729  0.00  0.00     0.033 C 
ATOM     13  C   UNL d   1     -28.735  11.463  12.075  0.00  0.00     0.005 C 
ATOM     14  C   UNL d   1     -31.349  12.326  17.617  0.00  0.00     0.082 C 
ATOM     15  C   UNL d   1     -31.552   9.949  16.474  0.00  0.00     0.071 C 
ATOM     16  O   UNL d   1     -30.812  11.428  15.477  0.00  0.00    -0.200 OA
ATOM     17  C   UNL d   1     -30.518   9.277  15.191  0.00  0.00     0.014 C 
ATOM     18  C   UNL d   1     -28.747  10.778  13.476  0.00  0.00    -0.011 C 
ATOM     19  C   UNL d   1     -27.666   9.709  13.586  0.00  0.00     0.010 C 
ENDROOT
BRANCH   1  20
ATOM     20  O   UNL d   1     -33.749  14.414  11.670  0.00  0.00    -0.371 OA
ATOM     21  H   UNL d   1     -33.770  15.046  12.400  0.00  0.00     0.212 HD
ENDBRANCH   1  20
TORSDOF 1
ENDMDL
MODEL 3
REMARK VINA RESULT:      -6.6     22.115     24.294
REMARK  1 active torsions:
REMARK  status: ('A' for Active; 'I' for Inactive)
REMARK    1  A    between atoms: C_2  and  O_1 
ROOT
ATOM      1  C   UNL d   1     -24.647   0.764   5.837  0.00  0.00     0.264 C 
ATOM      2  O   UNL d   1     -25.652   1.699   5.573  0.00  0.00    -0.328 OA
ATOM      3  C   UNL d   1     -24.231   0.776   7.316  0.00  0.00     0.044 C 
ATOM      4  C   UNL d   1     -26.814   1.592   6.396  0.00  0.00     0.305 C 
ATOM      5  C   UNL d   1     -23.868   2.207   7.767  0.00  0.00     0.015 C 
ATOM      6  C   UNL d   1     -25.346   0.107   8.151  0.00  0.00     0.037 C 
ATOM      7  O   UNL d   1     -28.061   1.211   5.437  0.00  0.00    -0.320 OA
ATOM      8  C   UNL d   1     -26.726   0.614   7.779  0.00  0.00     0.154 C 
ATOM      9  C   UNL d   1     -25.130   0.300   9.688  0.00  0.00     0.009 C 
ATOM     10  C   UNL d   1     -29.312   1.229   6.204  0.00  0.00     0.196 C 
ATOM     11  O   UNL d   1     -27.714  -0.056   7.148  0.00  0.00    -0.221 OA
ATOM     12  C   UNL d   1     -27.751   0.214   9.031  0.00  0.00     0.033 C 
ATOM     13  C   UNL d   1     -25.994   1.425  10.324  0.00  0.00     0.005 C 
ATOM     14  C   UNL d   1     -30.114   2.449   5.823  0.00  0.00     0.082 C 
ATOM     15  C   UNL d   1     -30.085   0.082   7.003  0.00  0.00     0.071 C 
ATOM     16  O   UNL d   1     -28.687   1.357   7.387  0.00  0.00    -0.200 OA
ATOM     17  C   UNL d   1     -29.405  -0.321   8.597  0.00  0.00     0.014 C 
ATOM     18  C   UNL d   1     -27.530   1.281  10.098  0.00  0.00    -0.011 C 
ATOM     19  C   UNL d   1     -28.265   0.995  11.402  0.00  0.00     0.010 C 
ENDROOT
BRANCH   1  20
ATOM     20  O   UNL d   1     -23.541   1.157   5.040  0.00  0.00    -0.371 OA
ATOM     21  H   UNL d   1     -23.962   1.360   4.194  0.00  0.00     0.212 HD
ENDBRANCH   1  20
TORSDOF 1
ENDMDL
MODEL 4
REMARK VINA RESULT:      -6.6     21.760     23.218
REMARK  1 active torsions:
REMARK  status: ('A' for Active; 'I' for Inactive)
REMARK    1  A    between atoms: C_2  and  O_1 
ROOT
ATOM      1  C   UNL d   1     -31.160  -0.790   9.327  0.00  0.00     0.264 C 
ATOM      2  O   UNL d   1     -32.337  -0.048   9.461  0.00  0.00    -0.328 OA
ATOM      3  C   UNL d   1     -29.923   0.021   9.744  0.00  0.00     0.044 C 
ATOM      4  C   UNL d   1     -32.553   0.522  10.752  0.00  0.00     0.305 C 
ATOM      5  C   UNL d   1     -29.882   1.371   8.996  0.00  0.00     0.015 C 
ATOM      6  C   UNL d   1     -29.904   0.143  11.284  0.00  0.00     0.037 C 
ATOM      7  O   UNL d   1     -33.887  -0.154  11.370  0.00  0.00    -0.320 OA
ATOM      8  C   UNL d   1     -31.256   0.538  11.847  0.00  0.00     0.154 C 
ATOM      9  C   UNL d   1     -28.828   1.162  11.783  0.00  0.00     0.009 C 
ATOM     10  C   UNL d   1     -34.243   0.497  12.636  0.00  0.00     0.196 C 
ATOM     11  O   UNL d   1     -32.102  -0.217  12.580  0.00  0.00    -0.221 OA
ATOM     12  C   UNL d   1     -31.000   1.104  13.393  0.00  0.00     0.033 C 
ATOM     13  C   UNL d   1     -29.392   2.561  12.162  0.00  0.00     0.005 C 
ATOM     14  C   UNL d   1     -35.457   1.368  12.427  0.00  0.00     0.082 C 
ATOM     15  C   UNL d   1     -33.851   0.165  14.149  0.00  0.00     0.071 C 
ATOM     16  O   UNL d   1     -33.097   1.196  12.701  0.00  0.00    -0.200 OA
ATOM     17  C   UNL d   1     -32.216   0.672  14.636  0.00  0.00     0.014 C 
ATOM     18  C   UNL d   1     -30.529   2.544  13.228  0.00  0.00    -0.011 C 
ATOM     19  C   UNL d   1     -30.082   3.188  14.535  0.00  0.00     0.010 C 
ENDROOT
BRANCH   1  20
ATOM     20  O   UNL d   1     -31.064  -1.108   7.949  0.00  0.00    -0.371 OA
ATOM     21  H   UNL d   1     -31.319  -2.041   7.937  0.00  0.00     0.212 HD
ENDBRANCH   1  20
TORSDOF 1
ENDMDL
MODEL 5
REMARK VINA RESULT:      -6.6     23.732     25.465
REMARK  1 active torsions:
REMARK  status: ('A' for Active; 'I' for Inactive)
REMARK    1  A    between atoms: C_2  and  O_1 
ROOT
ATOM      1  C   UNL d   1      -8.515 -32.483  31.760  0.00  0.00     0.264 C 
ATOM      2  O   UNL d   1      -9.393 -31.658  32.468  0.00  0.00    -0.328 OA
ATOM      3  C   UNL d   1      -7.082 -32.396  32.307  0.00  0.00     0.044 C 
ATOM      4  C   UNL d   1      -9.410 -31.860  33.882  0.00  0.00     0.305 C 
ATOM      5  C   UNL d   1      -6.617 -30.925  32.378  0.00  0.00     0.015 C 
ATOM      6  C   UNL d   1      -7.017 -33.150  33.655  0.00  0.00     0.037 C 
ATOM      7  O   UNL d   1     -10.887 -32.384  34.285  0.00  0.00    -0.320 OA
ATOM      8  C   UNL d   1      -8.171 -32.791  34.571  0.00  0.00     0.154 C 
ATOM      9  C   UNL d   1      -5.670 -32.900  34.408  0.00  0.00     0.009 C 
ATOM     10  C   UNL d   1     -11.010 -32.471  35.745  0.00  0.00     0.196 C 
ATOM     11  O   UNL d   1      -9.209 -33.569  34.944  0.00  0.00    -0.221 OA
ATOM     12  C   UNL d   1      -7.739 -33.260  36.112  0.00  0.00     0.033 C 
ATOM     13  C   UNL d   1      -5.757 -31.851  35.552  0.00  0.00     0.005 C 
ATOM     14  C   UNL d   1     -11.885 -31.345  36.240  0.00  0.00     0.082 C 
ATOM     15  C   UNL d   1     -10.736 -33.669  36.766  0.00  0.00     0.071 C 
ATOM     16  O   UNL d   1      -9.701 -32.254  35.957  0.00  0.00    -0.200 OA
ATOM     17  C   UNL d   1      -9.023 -33.965  37.143  0.00  0.00     0.014 C 
ATOM     18  C   UNL d   1      -6.835 -32.151  36.638  0.00  0.00    -0.011 C 
ATOM     19  C   UNL d   1      -6.199 -32.477  37.984  0.00  0.00     0.010 C 
ENDROOT
BRANCH   1  20
ATOM     20  O   UNL d   1      -8.533 -32.003  30.425  0.00  0.00    -0.371 OA
ATOM     21  H   UNL d   1      -8.326 -32.800  29.919  0.00  0.00     0.212 HD
ENDBRANCH   1  20
TORSDOF 1
ENDMDL
MODEL 6
REMARK VINA RESULT:      -6.6     21.469     23.454
REMARK  1 active torsions:
REMARK  status: ('A' for Active; 'I' for Inactive)
REMARK    1  A    between atoms: C_2  and  O_1 
ROOT
ATOM      1  C   UNL d   1     -28.160  -0.171   8.129  0.00  0.00     0.264 C 
ATOM      2  O   UNL d   1     -29.265   0.616   7.792  0.00  0.00    -0.328 OA
ATOM      3  C   UNL d   1     -27.467   0.333   9.405  0.00  0.00     0.044 C 
ATOM      4  C   UNL d   1     -30.234   0.778   8.828  0.00  0.00     0.305 C 
ATOM      5  C   UNL d   1     -27.134   1.836   9.284  0.00  0.00     0.015 C 
ATOM      6  C   UNL d   1     -28.347  -0.030  10.624  0.00  0.00     0.037 C 
ATOM      7  O   UNL d   1     -31.610   0.091   8.324  0.00  0.00    -0.320 OA
ATOM      8  C   UNL d   1     -29.807   0.314  10.403  0.00  0.00     0.154 C 
ATOM      9  C   UNL d   1     -27.853   0.663  11.936  0.00  0.00     0.009 C 
ATOM     10  C   UNL d   1     -32.687   0.353   9.286  0.00  0.00     0.196 C 
ATOM     11  O   UNL d   1     -30.844  -0.535  10.241  0.00  0.00    -0.221 OA
ATOM     12  C   UNL d   1     -30.538   0.343  11.900  0.00  0.00     0.033 C 
ATOM     13  C   UNL d   1     -28.661   1.928  12.340  0.00  0.00     0.005 C 
ATOM     14  C   UNL d   1     -33.638   1.371   8.707  0.00  0.00     0.082 C 
ATOM     15  C   UNL d   1     -33.203  -0.471  10.554  0.00  0.00     0.071 C 
ATOM     16  O   UNL d   1     -31.857   0.870  10.208  0.00  0.00    -0.200 OA
ATOM     17  C   UNL d   1     -32.199  -0.318  12.015  0.00  0.00     0.014 C 
ATOM     18  C   UNL d   1     -30.196   1.704  12.496  0.00  0.00    -0.011 C 
ATOM     19  C   UNL d   1     -30.641   1.860  13.945  0.00  0.00     0.010 C 
ENDROOT
BRANCH   1  20
ATOM     20  O   UNL d   1     -27.262  -0.056   7.037  0.00  0.00    -0.371 OA
ATOM     21  H   UNL d   1     -27.033   0.883   7.060  0.00  0.00     0.212 HD
ENDBRANCH   1  20
TORSDOF 1
ENDMDL
MODEL 7
REMARK VINA RESULT:      -6.5     21.299     22.832
REMARK  1 active torsions:
REMARK  status: ('A' for Active; 'I' for Inactive)
REMARK    1  A    between atoms: C_2  and  O_1 
ROOT
ATOM      1  C   UNL d   1     -32.243   0.003  12.904  0.00  0.00     0.264 C 
ATOM      2  O   UNL d   1     -31.801   1.324  12.781  0.00  0.00    -0.328 OA
ATOM      3  C   UNL d   1     -32.460  -0.657  11.534  0.00  0.00     0.044 C 
ATOM      4  C   UNL d   1     -30.636   1.502  11.976  0.00  0.00     0.305 C 
ATOM      5  C   UNL d   1     -33.379   0.215  10.651  0.00  0.00     0.015 C 
ATOM      6  C   UNL d   1     -31.082  -0.968  10.908  0.00  0.00     0.037 C 
ATOM      7  O   UNL d   1     -29.460   2.070  12.933  0.00  0.00    -0.320 OA
ATOM      8  C   UNL d   1     -30.126   0.205  11.008  0.00  0.00     0.154 C 
ATOM      9  C   UNL d   1     -31.197  -1.405   9.411  0.00  0.00     0.009 C 
ATOM     10  C   UNL d   1     -28.278   2.411  12.132  0.00  0.00     0.196 C 
ATOM     11  O   UNL d   1     -29.016   0.309  11.769  0.00  0.00    -0.221 OA
ATOM     12  C   UNL d   1     -28.904  -0.060   9.906  0.00  0.00     0.033 C 
ATOM     13  C   UNL d   1     -30.870  -0.284   8.385  0.00  0.00     0.005 C 
ATOM     14  C   UNL d   1     -28.157   3.912  12.035  0.00  0.00     0.082 C 
ATOM     15  C   UNL d   1     -26.991   1.558  11.721  0.00  0.00     0.071 C 
ATOM     16  O   UNL d   1     -28.764   1.847  11.014  0.00  0.00    -0.200 OA
ATOM     17  C   UNL d   1     -27.243   0.397  10.398  0.00  0.00     0.014 C 
ATOM     18  C   UNL d   1     -29.468   0.375   8.558  0.00  0.00    -0.011 C 
ATOM     19  C   UNL d   1     -28.549   0.054   7.385  0.00  0.00     0.010 C 
ENDROOT
BRANCH   1  20
ATOM     20  O   UNL d   1     -33.485   0.079  13.586  0.00  0.00    -0.371 OA
ATOM     21  H   UNL d   1     -34.120  -0.009  12.862  0.00  0.00     0.212 HD
ENDBRANCH   1  20
TORSDOF 1
ENDMDL
MODEL 8
REMARK VINA RESULT:      -6.3     21.968     23.970
REMARK  1 active torsions:
REMARK  status: ('A' for Active; 'I' for Inactive)
REMARK    1  A    between atoms: C_2  and  O_1 
ROOT
ATOM      1  C   UNL d   1     -25.366   0.969   5.791  0.00  0.00     0.264 C 
ATOM      2  O   UNL d   1     -26.763   0.981   5.737  0.00  0.00    -0.328 OA
ATOM      3  C   UNL d   1     -24.812   2.187   6.546  0.00  0.00     0.044 C 
ATOM      4  C   UNL d   1     -27.419   1.098   7.000  0.00  0.00     0.305 C 
ATOM      5  C   UNL d   1     -25.390   3.495   5.963  0.00  0.00     0.015 C 
ATOM      6  C   UNL d   1     -25.070   1.994   8.058  0.00  0.00     0.037 C 
ATOM      7  O   UNL d   1     -28.264  -0.261   7.241  0.00  0.00    -0.320 OA
ATOM      8  C   UNL d   1     -26.487   1.540   8.347  0.00  0.00     0.154 C 
ATOM      9  C   UNL d   1     -24.773   3.292   8.879  0.00  0.00     0.009 C 
ATOM     10  C   UNL d   1     -29.077  -0.141   8.457  0.00  0.00     0.196 C 
ATOM     11  O   UNL d   1     -26.898   0.336   8.800  0.00  0.00    -0.221 OA
ATOM     12  C   UNL d   1     -26.781   1.839   9.961  0.00  0.00     0.033 C 
ATOM     13  C   UNL d   1     -26.034   4.115   9.261  0.00  0.00     0.005 C 
ATOM     14  C   UNL d   1     -30.527   0.030   8.074  0.00  0.00     0.082 C 
ATOM     15  C   UNL d   1     -28.777  -0.525   9.978  0.00  0.00     0.071 C 
ATOM     16  O   UNL d   1     -28.494   1.008   8.839  0.00  0.00    -0.200 OA
ATOM     17  C   UNL d   1     -27.740   0.622  10.859  0.00  0.00     0.014 C 
ATOM     18  C   UNL d   1     -27.123   3.322  10.046  0.00  0.00    -0.011 C 
ATOM     19  C   UNL d   1     -27.265   3.829  11.476  0.00  0.00     0.010 C 
ENDROOT
BRANCH   1  20
ATOM     20  O   UNL d   1     -24.931   1.022   4.442  0.00  0.00    -0.371 OA
ATOM     21  H   UNL d   1     -25.437   0.304   4.037  0.00  0.00     0.212 HD
ENDBRANCH   1  20
TORSDOF 1
ENDMDL
MODEL 9
REMARK VINA RESULT:      -6.2     13.735     15.835
REMARK  1 active torsions:
REMARK  status: ('A' for Active; 'I' for Inactive)
REMARK    1  A    between atoms: C_2  and  O_1 
ROOT
ATOM      1  C   UNL d   1      -7.818 -22.656  28.477  0.00  0.00     0.264 C 
ATOM      2  O   UNL d   1      -7.268 -22.933  27.222  0.00  0.00    -0.328 OA
ATOM      3  C   UNL d   1      -8.968 -21.641  28.386  0.00  0.00     0.044 C 
ATOM      4  C   UNL d   1      -8.202 -23.359  26.230  0.00  0.00     0.305 C 
ATOM      5  C   UNL d   1      -8.516 -20.376  27.624  0.00  0.00     0.015 C 
ATOM      6  C   UNL d   1     -10.204 -22.344  27.779  0.00  0.00     0.037 C 
ATOM      7  O   UNL d   1      -7.820 -24.876  25.815  0.00  0.00    -0.320 OA
ATOM      8  C   UNL d   1      -9.857 -23.163  26.552  0.00  0.00     0.154 C 
ATOM      9  C   UNL d   1     -11.339 -21.332  27.412  0.00  0.00     0.009 C 
ATOM     10  C   UNL d   1      -8.656 -25.318  24.693  0.00  0.00     0.196 C 
ATOM     11  O   UNL d   1      -9.856 -24.507  26.423  0.00  0.00    -0.221 OA
ATOM     12  C   UNL d   1     -11.279 -23.449  25.732  0.00  0.00     0.033 C 
ATOM     13  C   UNL d   1     -11.410 -20.963  25.904  0.00  0.00     0.005 C 
ATOM     14  C   UNL d   1      -7.823 -25.358  23.435  0.00  0.00     0.082 C 
ATOM     15  C   UNL d   1     -10.060 -26.079  24.648  0.00  0.00     0.071 C 
ATOM     16  O   UNL d   1      -9.463 -24.246  24.756  0.00  0.00    -0.200 OA
ATOM     17  C   UNL d   1     -11.482 -25.064  24.982  0.00  0.00     0.014 C 
ATOM     18  C   UNL d   1     -11.557 -22.178  24.937  0.00  0.00    -0.011 C 
ATOM     19  C   UNL d   1     -12.913 -22.182  24.243  0.00  0.00     0.010 C 
ENDROOT
BRANCH   1  20
ATOM     20  O   UNL d   1      -6.763 -22.095  29.241  0.00  0.00    -0.371 OA
ATOM     21  H   UNL d   1      -6.651 -21.228  28.827  0.00  0.00     0.212 HD
ENDBRANCH   1  20
TORSDOF 1
ENDMDL
