MODEL 1
REMARK VINA RESULT:      -3.6      0.000      0.000
REMARK  16 active torsions:
REMARK  status: ('A' for Active; 'I' for Inactive)
REMARK    1  A    between atoms: C_2  and  C_3 
REMARK    2  A    between atoms: C_3  and  C_4 
REMARK    3  A    between atoms: C_4  and  C_5 
REMARK    4  A    between atoms: C_5  and  C_6 
REMARK    5  A    between atoms: C_7  and  C_8 
REMARK    6  A    between atoms: C_8  and  C_9 
REMARK    7  A    between atoms: C_10  and  C_11 
REMARK    8  A    between atoms: C_11  and  C_12 
REMARK    9  A    between atoms: C_13  and  C_14 
REMARK   10  A    between atoms: C_15  and  C_16 
REMARK   11  A    between atoms: C_16  and  O_18 
REMARK   12  A    between atoms: C_16  and  C_17 
REMARK   13  A    between atoms: C_17  and  C_19 
REMARK   14  A    between atoms: C_19  and  C_20 
REMARK   15  A    between atoms: C_20  and  C_21 
REMARK   16  A    between atoms: C_21  and  O_23 
ROOT
ATOM      1  C   UNL d   1      13.357  34.746  26.192  0.00  0.00    -0.023 C 
ATOM      2  C   UNL d   1      14.137  34.221  27.148  0.00  0.00    -0.004 C 
ENDROOT
BRANCH   2   3
ATOM      3  C   UNL d   1      15.065  34.986  27.939  0.00  0.00    -0.002 C 
ATOM      4  C   UNL d   1      15.436  34.662  29.185  0.00  0.00     0.004 C 
BRANCH   4   5
ATOM      5  C   UNL d   1      16.457  35.472  29.932  0.00  0.00     0.141 C 
BRANCH   5   6
ATOM      6  O   UNL d   1      15.995  35.668  31.264  0.00  0.00    -0.392 OA
ATOM      7  H   UNL d   1      15.846  34.796  31.663  0.00  0.00     0.210 HD
ENDBRANCH   5   6
BRANCH   5   8
ATOM      8  C   UNL d   1      17.829  34.796  29.978  0.00  0.00     0.036 C 
BRANCH   8   9
ATOM      9  C   UNL d   1      18.715  35.152  28.782  0.00  0.00     0.013 C 
BRANCH   9  10
ATOM     10  C   UNL d   1      19.870  36.061  29.197  0.00  0.00     0.110 C 
BRANCH  10  11
ATOM     11  C   UNL d   1      20.222  37.050  28.109  0.00  0.00     0.139 C 
ATOM     12  O   UNL d   1      19.516  37.964  27.729  0.00  0.00    -0.650 OA
BRANCH  11  13
ATOM     13  O   UNL d   1      21.445  36.814  27.581  0.00  0.00    -0.776 OA
ATOM     14  H   UNL d   1      21.619  35.874  27.388  0.00  0.00     0.167 HD
ENDBRANCH  11  13
ENDBRANCH  10  11
ENDBRANCH   9  10
ENDBRANCH   8   9
ENDBRANCH   5   8
ENDBRANCH   4   5
ENDBRANCH   2   3
BRANCH   1  15
ATOM     15  C   UNL d   1      13.263  36.192  25.773  0.00  0.00     0.054 C 
BRANCH  15  16
ATOM     16  C   UNL d   1      11.933  36.818  26.108  0.00  0.00    -0.027 C 
ATOM     17  C   UNL d   1      11.657  37.515  27.223  0.00  0.00    -0.027 C 
BRANCH  17  18
ATOM     18  C   UNL d   1      12.655  37.744  28.317  0.00  0.00     0.053 C 
BRANCH  18  19
ATOM     19  C   UNL d   1      12.033  37.894  29.672  0.00  0.00    -0.027 C 
ATOM     20  C   UNL d   1      11.824  36.877  30.524  0.00  0.00    -0.030 C 
BRANCH  20  21
ATOM     21  C   UNL d   1      12.142  35.444  30.192  0.00  0.00     0.027 C 
BRANCH  21  22
ATOM     22  C   UNL d   1      10.903  34.561  30.094  0.00  0.00     0.004 C 
BRANCH  22  23
ATOM     23  C   UNL d   1      10.524  34.347  28.628  0.00  0.00    -0.000 C 
BRANCH  23  24
ATOM     24  C   UNL d   1       9.062  33.939  28.488  0.00  0.00    -0.005 C 
ATOM     25  C   UNL d   1       8.473  33.535  29.829  0.00  0.00     0.005 C 
ENDBRANCH  23  24
ENDBRANCH  22  23
ENDBRANCH  21  22
ENDBRANCH  20  21
ENDBRANCH  18  19
ENDBRANCH  17  18
ENDBRANCH  15  16
ENDBRANCH   1  15
TORSDOF 16
ENDMDL
MODEL 2
REMARK VINA RESULT:      -3.4     10.440     13.012
REMARK  16 active torsions:
REMARK  status: ('A' for Active; 'I' for Inactive)
REMARK    1  A    between atoms: C_2  and  C_3 
REMARK    2  A    between atoms: C_3  and  C_4 
REMARK    3  A    between atoms: C_4  and  C_5 
REMARK    4  A    between atoms: C_5  and  C_6 
REMARK    5  A    between atoms: C_7  and  C_8 
REMARK    6  A    between atoms: C_8  and  C_9 
REMARK    7  A    between atoms: C_10  and  C_11 
REMARK    8  A    between atoms: C_11  and  C_12 
REMARK    9  A    between atoms: C_13  and  C_14 
REMARK   10  A    between atoms: C_15  and  C_16 
REMARK   11  A    between atoms: C_16  and  O_18 
REMARK   12  A    between atoms: C_16  and  C_17 
REMARK   13  A    between atoms: C_17  and  C_19 
REMARK   14  A    between atoms: C_19  and  C_20 
REMARK   15  A    between atoms: C_20  and  C_21 
REMARK   16  A    between atoms: C_21  and  O_23 
ROOT
ATOM      1  C   UNL d   1      11.023  24.457  25.884  0.00  0.00    -0.023 C 
ATOM      2  C   UNL d   1      10.268  24.091  26.931  0.00  0.00    -0.004 C 
ENDROOT
BRANCH   2   3
ATOM      3  C   UNL d   1      10.636  24.315  28.304  0.00  0.00    -0.002 C 
ATOM      4  C   UNL d   1      10.256  25.382  29.020  0.00  0.00     0.004 C 
BRANCH   4   5
ATOM      5  C   UNL d   1      10.626  25.523  30.469  0.00  0.00     0.141 C 
BRANCH   5   6
ATOM      6  O   UNL d   1       9.447  25.386  31.255  0.00  0.00    -0.392 OA
ATOM      7  H   UNL d   1       9.087  24.498  31.107  0.00  0.00     0.210 HD
ENDBRANCH   5   6
BRANCH   5   8
ATOM      8  C   UNL d   1      11.646  24.476  30.922  0.00  0.00     0.036 C 
BRANCH   8   9
ATOM      9  C   UNL d   1      11.071  23.468  31.920  0.00  0.00     0.013 C 
BRANCH   9  10
ATOM     10  C   UNL d   1      10.959  22.075  31.302  0.00  0.00     0.110 C 
BRANCH  10  11
ATOM     11  C   UNL d   1       9.523  21.606  31.234  0.00  0.00     0.139 C 
ATOM     12  O   UNL d   1       9.122  20.510  31.572  0.00  0.00    -0.650 OA
BRANCH  11  13
ATOM     13  O   UNL d   1       8.697  22.560  30.746  0.00  0.00    -0.776 OA
ATOM     14  H   UNL d   1       8.670  23.374  31.283  0.00  0.00     0.167 HD
ENDBRANCH  11  13
ENDBRANCH  10  11
ENDBRANCH   9  10
ENDBRANCH   8   9
ENDBRANCH   5   8
ENDBRANCH   4   5
ENDBRANCH   2   3
BRANCH   1  15
ATOM     15  C   UNL d   1      12.348  25.176  25.912  0.00  0.00     0.054 C 
BRANCH  15  16
ATOM     16  C   UNL d   1      12.204  26.673  26.033  0.00  0.00    -0.027 C 
ATOM     17  C   UNL d   1      12.922  27.463  26.848  0.00  0.00    -0.027 C 
BRANCH  17  18
ATOM     18  C   UNL d   1      13.969  26.942  27.786  0.00  0.00     0.053 C 
BRANCH  18  19
ATOM     19  C   UNL d   1      13.675  27.224  29.227  0.00  0.00    -0.027 C 
ATOM     20  C   UNL d   1      14.435  26.800  30.250  0.00  0.00    -0.030 C 
BRANCH  20  21
ATOM     21  C   UNL d   1      15.653  25.934  30.070  0.00  0.00     0.027 C 
BRANCH  21  22
ATOM     22  C   UNL d   1      15.368  24.450  30.267  0.00  0.00     0.004 C 
BRANCH  22  23
ATOM     23  C   UNL d   1      15.418  23.720  28.923  0.00  0.00    -0.000 C 
BRANCH  23  24
ATOM     24  C   UNL d   1      14.061  23.127  28.565  0.00  0.00    -0.005 C 
ATOM     25  C   UNL d   1      14.146  22.279  27.308  0.00  0.00     0.005 C 
ENDBRANCH  23  24
ENDBRANCH  22  23
ENDBRANCH  21  22
ENDBRANCH  20  21
ENDBRANCH  18  19
ENDBRANCH  17  18
ENDBRANCH  15  16
ENDBRANCH   1  15
TORSDOF 16
ENDMDL
MODEL 3
REMARK VINA RESULT:      -3.3     32.174     34.276
REMARK  16 active torsions:
REMARK  status: ('A' for Active; 'I' for Inactive)
REMARK    1  A    between atoms: C_2  and  C_3 
REMARK    2  A    between atoms: C_3  and  C_4 
REMARK    3  A    between atoms: C_4  and  C_5 
REMARK    4  A    between atoms: C_5  and  C_6 
REMARK    5  A    between atoms: C_7  and  C_8 
REMARK    6  A    between atoms: C_8  and  C_9 
REMARK    7  A    between atoms: C_10  and  C_11 
REMARK    8  A    between atoms: C_11  and  C_12 
REMARK    9  A    between atoms: C_13  and  C_14 
REMARK   10  A    between atoms: C_15  and  C_16 
REMARK   11  A    between atoms: C_16  and  O_18 
REMARK   12  A    between atoms: C_16  and  C_17 
REMARK   13  A    between atoms: C_17  and  C_19 
REMARK   14  A    between atoms: C_19  and  C_20 
REMARK   15  A    between atoms: C_20  and  C_21 
REMARK   16  A    between atoms: C_21  and  O_23 
ROOT
ATOM      1  C   UNL d   1      22.501   3.202  33.752  0.00  0.00    -0.023 C 
ATOM      2  C   UNL d   1      22.476   2.166  34.603  0.00  0.00    -0.004 C 
ENDROOT
BRANCH   2   3
ATOM      3  C   UNL d   1      23.392   2.003  35.701  0.00  0.00    -0.002 C 
ATOM      4  C   UNL d   1      24.104   0.891  35.928  0.00  0.00     0.004 C 
BRANCH   4   5
ATOM      5  C   UNL d   1      25.088   0.811  37.060  0.00  0.00     0.141 C 
BRANCH   5   6
ATOM      6  O   UNL d   1      24.572   1.548  38.163  0.00  0.00    -0.392 OA
ATOM      7  H   UNL d   1      23.734   1.953  37.891  0.00  0.00     0.210 HD
ENDBRANCH   5   6
BRANCH   5   8
ATOM      8  C   UNL d   1      25.355  -0.628  37.510  0.00  0.00     0.036 C 
BRANCH   8   9
ATOM      9  C   UNL d   1      24.225  -1.592  37.143  0.00  0.00     0.013 C 
BRANCH   9  10
ATOM     10  C   UNL d   1      23.383  -1.954  38.365  0.00  0.00     0.110 C 
BRANCH  10  11
ATOM     11  C   UNL d   1      22.063  -1.216  38.374  0.00  0.00     0.139 C 
ATOM     12  O   UNL d   1      21.928  -0.010  38.302  0.00  0.00    -0.650 OA
BRANCH  11  13
ATOM     13  O   UNL d   1      21.009  -2.057  38.470  0.00  0.00    -0.776 OA
ATOM     14  H   UNL d   1      20.160  -1.663  38.198  0.00  0.00     0.167 HD
ENDBRANCH  11  13
ENDBRANCH  10  11
ENDBRANCH   9  10
ENDBRANCH   8   9
ENDBRANCH   5   8
ENDBRANCH   4   5
ENDBRANCH   2   3
BRANCH   1  15
ATOM     15  C   UNL d   1      23.434   4.387  33.775  0.00  0.00     0.054 C 
BRANCH  15  16
ATOM     16  C   UNL d   1      22.708   5.709  33.790  0.00  0.00    -0.027 C 
ATOM     17  C   UNL d   1      23.088   6.817  33.132  0.00  0.00    -0.027 C 
BRANCH  17  18
ATOM     18  C   UNL d   1      24.331   6.891  32.297  0.00  0.00     0.053 C 
BRANCH  18  19
ATOM     19  C   UNL d   1      25.521   7.413  33.042  0.00  0.00    -0.027 C 
ATOM     20  C   UNL d   1      25.721   8.710  33.332  0.00  0.00    -0.030 C 
BRANCH  20  21
ATOM     21  C   UNL d   1      24.791   9.807  32.889  0.00  0.00     0.027 C 
BRANCH  21  22
ATOM     22  C   UNL d   1      25.413  10.739  31.855  0.00  0.00     0.004 C 
BRANCH  22  23
ATOM     23  C   UNL d   1      24.376  11.117  30.796  0.00  0.00    -0.000 C 
BRANCH  23  24
ATOM     24  C   UNL d   1      23.605   9.894  30.314  0.00  0.00    -0.005 C 
ATOM     25  C   UNL d   1      22.106  10.110  30.423  0.00  0.00     0.005 C 
ENDBRANCH  23  24
ENDBRANCH  22  23
ENDBRANCH  21  22
ENDBRANCH  20  21
ENDBRANCH  18  19
ENDBRANCH  17  18
ENDBRANCH  15  16
ENDBRANCH   1  15
TORSDOF 16
ENDMDL
MODEL 4
REMARK VINA RESULT:      -3.3     21.274     23.234
REMARK  16 active torsions:
REMARK  status: ('A' for Active; 'I' for Inactive)
REMARK    1  A    between atoms: C_2  and  C_3 
REMARK    2  A    between atoms: C_3  and  C_4 
REMARK    3  A    between atoms: C_4  and  C_5 
REMARK    4  A    between atoms: C_5  and  C_6 
REMARK    5  A    between atoms: C_7  and  C_8 
REMARK    6  A    between atoms: C_8  and  C_9 
REMARK    7  A    between atoms: C_10  and  C_11 
REMARK    8  A    between atoms: C_11  and  C_12 
REMARK    9  A    between atoms: C_13  and  C_14 
REMARK   10  A    between atoms: C_15  and  C_16 
REMARK   11  A    between atoms: C_16  and  O_18 
REMARK   12  A    between atoms: C_16  and  C_17 
REMARK   13  A    between atoms: C_17  and  C_19 
REMARK   14  A    between atoms: C_19  and  C_20 
REMARK   15  A    between atoms: C_20  and  C_21 
REMARK   16  A    between atoms: C_21  and  O_23 
ROOT
ATOM      1  C   UNL d   1      21.457  16.212  26.174  0.00  0.00    -0.023 C 
ATOM      2  C   UNL d   1      20.792  15.049  26.241  0.00  0.00    -0.004 C 
ENDROOT
BRANCH   2   3
ATOM      3  C   UNL d   1      20.186  14.536  27.441  0.00  0.00    -0.002 C 
ATOM      4  C   UNL d   1      19.861  13.249  27.629  0.00  0.00     0.004 C 
BRANCH   4   5
ATOM      5  C   UNL d   1      19.286  12.771  28.931  0.00  0.00     0.141 C 
BRANCH   5   6
ATOM      6  O   UNL d   1      17.867  12.841  28.854  0.00  0.00    -0.392 OA
ATOM      7  H   UNL d   1      17.581  13.662  29.284  0.00  0.00     0.210 HD
ENDBRANCH   5   6
BRANCH   5   8
ATOM      8  C   UNL d   1      19.692  11.333  29.263  0.00  0.00     0.036 C 
BRANCH   8   9
ATOM      9  C   UNL d   1      20.815  11.249  30.300  0.00  0.00     0.013 C 
BRANCH   9  10
ATOM     10  C   UNL d   1      22.173  11.035  29.635  0.00  0.00     0.110 C 
BRANCH  10  11
ATOM     11  C   UNL d   1      23.219  10.584  30.629  0.00  0.00     0.139 C 
ATOM     12  O   UNL d   1      24.367  10.982  30.674  0.00  0.00    -0.650 OA
BRANCH  11  13
ATOM     13  O   UNL d   1      22.737   9.664  31.495  0.00  0.00    -0.776 OA
ATOM     14  H   UNL d   1      22.852   9.904  32.433  0.00  0.00     0.167 HD
ENDBRANCH  11  13
ENDBRANCH  10  11
ENDBRANCH   9  10
ENDBRANCH   8   9
ENDBRANCH   5   8
ENDBRANCH   4   5
ENDBRANCH   2   3
BRANCH   1  15
ATOM     15  C   UNL d   1      21.682  17.207  27.285  0.00  0.00     0.054 C 
BRANCH  15  16
ATOM     16  C   UNL d   1      20.480  18.080  27.547  0.00  0.00    -0.027 C 
ATOM     17  C   UNL d   1      20.059  18.487  28.756  0.00  0.00    -0.027 C 
BRANCH  17  18
ATOM     18  C   UNL d   1      20.733  18.094  30.036  0.00  0.00     0.053 C 
BRANCH  18  19
ATOM     19  C   UNL d   1      20.236  16.799  30.601  0.00  0.00    -0.027 C 
ATOM     20  C   UNL d   1      21.023  15.747  30.884  0.00  0.00    -0.030 C 
BRANCH  20  21
ATOM     21  C   UNL d   1      22.502  15.727  30.611  0.00  0.00     0.027 C 
BRANCH  21  22
ATOM     22  C   UNL d   1      22.941  14.534  29.769  0.00  0.00     0.004 C 
BRANCH  22  23
ATOM     23  C   UNL d   1      24.460  14.550  29.584  0.00  0.00    -0.000 C 
BRANCH  23  24
ATOM     24  C   UNL d   1      25.010  15.969  29.649  0.00  0.00    -0.005 C 
ATOM     25  C   UNL d   1      26.161  16.069  30.636  0.00  0.00     0.005 C 
ENDBRANCH  23  24
ENDBRANCH  22  23
ENDBRANCH  21  22
ENDBRANCH  20  21
ENDBRANCH  18  19
ENDBRANCH  17  18
ENDBRANCH  15  16
ENDBRANCH   1  15
TORSDOF 16
ENDMDL
MODEL 5
REMARK VINA RESULT:      -3.2      1.874      4.041
REMARK  16 active torsions:
REMARK  status: ('A' for Active; 'I' for Inactive)
REMARK    1  A    between atoms: C_2  and  C_3 
REMARK    2  A    between atoms: C_3  and  C_4 
REMARK    3  A    between atoms: C_4  and  C_5 
REMARK    4  A    between atoms: C_5  and  C_6 
REMARK    5  A    between atoms: C_7  and  C_8 
REMARK    6  A    between atoms: C_8  and  C_9 
REMARK    7  A    between atoms: C_10  and  C_11 
REMARK    8  A    between atoms: C_11  and  C_12 
REMARK    9  A    between atoms: C_13  and  C_14 
REMARK   10  A    between atoms: C_15  and  C_16 
REMARK   11  A    between atoms: C_16  and  O_18 
REMARK   12  A    between atoms: C_16  and  C_17 
REMARK   13  A    between atoms: C_17  and  C_19 
REMARK   14  A    between atoms: C_19  and  C_20 
REMARK   15  A    between atoms: C_20  and  C_21 
REMARK   16  A    between atoms: C_21  and  O_23 
ROOT
ATOM      1  C   UNL d   1      12.098  38.766  28.698  0.00  0.00    -0.023 C 
ATOM      2  C   UNL d   1      13.248  38.680  28.015  0.00  0.00    -0.004 C 
ENDROOT
BRANCH   2   3
ATOM      3  C   UNL d   1      13.952  37.448  27.774  0.00  0.00    -0.002 C 
ATOM      4  C   UNL d   1      13.702  36.629  26.743  0.00  0.00     0.004 C 
BRANCH   4   5
ATOM      5  C   UNL d   1      14.517  35.387  26.518  0.00  0.00     0.141 C 
BRANCH   5   6
ATOM      6  O   UNL d   1      15.875  35.764  26.320  0.00  0.00    -0.392 OA
ATOM      7  H   UNL d   1      16.277  35.911  27.190  0.00  0.00     0.210 HD
ENDBRANCH   5   6
BRANCH   5   8
ATOM      8  C   UNL d   1      14.441  34.410  27.693  0.00  0.00     0.036 C 
BRANCH   8   9
ATOM      9  C   UNL d   1      15.803  34.136  28.337  0.00  0.00     0.013 C 
BRANCH   9  10
ATOM     10  C   UNL d   1      15.933  34.843  29.684  0.00  0.00     0.110 C 
BRANCH  10  11
ATOM     11  C   UNL d   1      17.210  35.648  29.773  0.00  0.00     0.139 C 
ATOM     12  O   UNL d   1      18.220  35.309  30.359  0.00  0.00    -0.650 OA
BRANCH  11  13
ATOM     13  O   UNL d   1      17.118  36.824  29.111  0.00  0.00    -0.776 OA
ATOM     14  H   UNL d   1      16.818  37.568  29.664  0.00  0.00     0.167 HD
ENDBRANCH  11  13
ENDBRANCH  10  11
ENDBRANCH   9  10
ENDBRANCH   8   9
ENDBRANCH   5   8
ENDBRANCH   4   5
ENDBRANCH   2   3
BRANCH   1  15
ATOM     15  C   UNL d   1      11.308  37.637  29.312  0.00  0.00     0.054 C 
BRANCH  15  16
ATOM     16  C   UNL d   1      12.130  36.778  30.240  0.00  0.00    -0.027 C 
ATOM     17  C   UNL d   1      11.921  35.474  30.487  0.00  0.00    -0.027 C 
BRANCH  17  18
ATOM     18  C   UNL d   1      10.798  34.691  29.875  0.00  0.00     0.053 C 
BRANCH  18  19
ATOM     19  C   UNL d   1      11.059  34.278  28.460  0.00  0.00    -0.027 C 
ATOM     20  C   UNL d   1      10.127  33.769  27.637  0.00  0.00    -0.030 C 
BRANCH  20  21
ATOM     21  C   UNL d   1       8.709  33.500  28.064  0.00  0.00     0.027 C 
BRANCH  21  22
ATOM     22  C   UNL d   1       7.772  34.675  27.811  0.00  0.00     0.004 C 
BRANCH  22  23
ATOM     23  C   UNL d   1       6.652  34.689  28.852  0.00  0.00    -0.000 C 
BRANCH  23  24
ATOM     24  C   UNL d   1       6.581  36.030  29.572  0.00  0.00    -0.005 C 
ATOM     25  C   UNL d   1       7.825  36.861  29.309  0.00  0.00     0.005 C 
ENDBRANCH  23  24
ENDBRANCH  22  23
ENDBRANCH  21  22
ENDBRANCH  20  21
ENDBRANCH  18  19
ENDBRANCH  17  18
ENDBRANCH  15  16
ENDBRANCH   1  15
TORSDOF 16
ENDMDL
MODEL 6
REMARK VINA RESULT:      -3.0     10.497     13.365
REMARK  16 active torsions:
REMARK  status: ('A' for Active; 'I' for Inactive)
REMARK    1  A    between atoms: C_2  and  C_3 
REMARK    2  A    between atoms: C_3  and  C_4 
REMARK    3  A    between atoms: C_4  and  C_5 
REMARK    4  A    between atoms: C_5  and  C_6 
REMARK    5  A    between atoms: C_7  and  C_8 
REMARK    6  A    between atoms: C_8  and  C_9 
REMARK    7  A    between atoms: C_10  and  C_11 
REMARK    8  A    between atoms: C_11  and  C_12 
REMARK    9  A    between atoms: C_13  and  C_14 
REMARK   10  A    between atoms: C_15  and  C_16 
REMARK   11  A    between atoms: C_16  and  O_18 
REMARK   12  A    between atoms: C_16  and  C_17 
REMARK   13  A    between atoms: C_17  and  C_19 
REMARK   14  A    between atoms: C_19  and  C_20 
REMARK   15  A    between atoms: C_20  and  C_21 
REMARK   16  A    between atoms: C_21  and  O_23 
ROOT
ATOM      1  C   UNL d   1      12.110  24.185  25.308  0.00  0.00    -0.023 C 
ATOM      2  C   UNL d   1      10.819  24.532  25.212  0.00  0.00    -0.004 C 
ENDROOT
BRANCH   2   3
ATOM      3  C   UNL d   1       9.959  24.757  26.344  0.00  0.00    -0.002 C 
ATOM      4  C   UNL d   1       9.853  25.929  26.985  0.00  0.00     0.004 C 
BRANCH   4   5
ATOM      5  C   UNL d   1       8.890  26.112  28.124  0.00  0.00     0.141 C 
BRANCH   5   6
ATOM      6  O   UNL d   1       7.983  25.015  28.132  0.00  0.00    -0.392 OA
ATOM      7  H   UNL d   1       8.151  24.489  28.929  0.00  0.00     0.210 HD
ENDBRANCH   5   6
BRANCH   5   8
ATOM      8  C   UNL d   1       9.590  26.184  29.483  0.00  0.00     0.036 C 
BRANCH   8   9
ATOM      9  C   UNL d   1       9.988  24.810  30.029  0.00  0.00     0.013 C 
BRANCH   9  10
ATOM     10  C   UNL d   1       9.270  24.504  31.342  0.00  0.00     0.110 C 
BRANCH  10  11
ATOM     11  C   UNL d   1       9.856  23.292  32.030  0.00  0.00     0.139 C 
ATOM     12  O   UNL d   1       9.379  22.174  32.017  0.00  0.00    -0.650 OA
BRANCH  11  13
ATOM     13  O   UNL d   1      11.004  23.581  32.685  0.00  0.00    -0.776 OA
ATOM     14  H   UNL d   1      11.681  24.008  32.128  0.00  0.00     0.167 HD
ENDBRANCH  11  13
ENDBRANCH  10  11
ENDBRANCH   9  10
ENDBRANCH   8   9
ENDBRANCH   5   8
ENDBRANCH   4   5
ENDBRANCH   2   3
BRANCH   1  15
ATOM     15  C   UNL d   1      12.919  23.993  26.567  0.00  0.00     0.054 C 
BRANCH  15  16
ATOM     16  C   UNL d   1      12.802  22.601  27.136  0.00  0.00    -0.027 C 
ATOM     17  C   UNL d   1      12.906  22.277  28.436  0.00  0.00    -0.027 C 
BRANCH  17  18
ATOM     18  C   UNL d   1      13.184  23.281  29.513  0.00  0.00     0.053 C 
BRANCH  18  19
ATOM     19  C   UNL d   1      13.990  22.732  30.650  0.00  0.00    -0.027 C 
ATOM     20  C   UNL d   1      15.267  23.066  30.901  0.00  0.00    -0.030 C 
BRANCH  20  21
ATOM     21  C   UNL d   1      16.063  23.997  30.028  0.00  0.00     0.027 C 
BRANCH  21  22
ATOM     22  C   UNL d   1      16.241  25.384  30.635  0.00  0.00     0.004 C 
BRANCH  22  23
ATOM     23  C   UNL d   1      15.598  26.440  29.734  0.00  0.00    -0.000 C 
BRANCH  23  24
ATOM     24  C   UNL d   1      14.170  26.744  30.170  0.00  0.00    -0.005 C 
ATOM     25  C   UNL d   1      13.246  26.879  28.972  0.00  0.00     0.005 C 
ENDBRANCH  23  24
ENDBRANCH  22  23
ENDBRANCH  21  22
ENDBRANCH  20  21
ENDBRANCH  18  19
ENDBRANCH  17  18
ENDBRANCH  15  16
ENDBRANCH   1  15
TORSDOF 16
ENDMDL
MODEL 7
REMARK VINA RESULT:      -3.0      4.205      9.053
REMARK  16 active torsions:
REMARK  status: ('A' for Active; 'I' for Inactive)
REMARK    1  A    between atoms: C_2  and  C_3 
REMARK    2  A    between atoms: C_3  and  C_4 
REMARK    3  A    between atoms: C_4  and  C_5 
REMARK    4  A    between atoms: C_5  and  C_6 
REMARK    5  A    between atoms: C_7  and  C_8 
REMARK    6  A    between atoms: C_8  and  C_9 
REMARK    7  A    between atoms: C_10  and  C_11 
REMARK    8  A    between atoms: C_11  and  C_12 
REMARK    9  A    between atoms: C_13  and  C_14 
REMARK   10  A    between atoms: C_15  and  C_16 
REMARK   11  A    between atoms: C_16  and  O_18 
REMARK   12  A    between atoms: C_16  and  C_17 
REMARK   13  A    between atoms: C_17  and  C_19 
REMARK   14  A    between atoms: C_19  and  C_20 
REMARK   15  A    between atoms: C_20  and  C_21 
REMARK   16  A    between atoms: C_21  and  O_23 
ROOT
ATOM      1  C   UNL d   1      13.277  35.750  29.818  0.00  0.00    -0.023 C 
ATOM      2  C   UNL d   1      12.038  35.637  30.318  0.00  0.00    -0.004 C 
ENDROOT
BRANCH   2   3
ATOM      3  C   UNL d   1      10.839  35.763  29.532  0.00  0.00    -0.002 C 
ATOM      4  C   UNL d   1      10.027  36.829  29.564  0.00  0.00     0.004 C 
BRANCH   4   5
ATOM      5  C   UNL d   1       8.823  36.921  28.672  0.00  0.00     0.141 C 
BRANCH   5   6
ATOM      6  O   UNL d   1       8.786  35.768  27.838  0.00  0.00    -0.392 OA
ATOM      7  H   UNL d   1       7.884  35.670  27.496  0.00  0.00     0.210 HD
ENDBRANCH   5   6
BRANCH   5   8
ATOM      8  C   UNL d   1       7.511  37.004  29.457  0.00  0.00     0.036 C 
BRANCH   8   9
ATOM      9  C   UNL d   1       6.425  36.071  28.915  0.00  0.00     0.013 C 
BRANCH   9  10
ATOM     10  C   UNL d   1       5.980  35.063  29.972  0.00  0.00     0.110 C 
BRANCH  10  11
ATOM     11  C   UNL d   1       6.566  33.692  29.720  0.00  0.00     0.139 C 
ATOM     12  O   UNL d   1       5.935  32.700  29.413  0.00  0.00    -0.650 OA
BRANCH  11  13
ATOM     13  O   UNL d   1       7.910  33.676  29.872  0.00  0.00    -0.776 OA
ATOM     14  H   UNL d   1       8.373  33.086  29.250  0.00  0.00     0.167 HD
ENDBRANCH  11  13
ENDBRANCH  10  11
ENDBRANCH   9  10
ENDBRANCH   8   9
ENDBRANCH   5   8
ENDBRANCH   4   5
ENDBRANCH   2   3
BRANCH   1  15
ATOM     15  C   UNL d   1      13.671  35.993  28.382  0.00  0.00     0.054 C 
BRANCH  15  16
ATOM     16  C   UNL d   1      13.585  34.752  27.529  0.00  0.00    -0.027 C 
ATOM     17  C   UNL d   1      14.629  34.014  27.116  0.00  0.00    -0.027 C 
BRANCH  17  18
ATOM     18  C   UNL d   1      16.053  34.353  27.437  0.00  0.00     0.053 C 
BRANCH  18  19
ATOM     19  C   UNL d   1      16.596  33.601  28.613  0.00  0.00    -0.027 C 
ATOM     20  C   UNL d   1      17.015  34.179  29.751  0.00  0.00    -0.030 C 
BRANCH  20  21
ATOM     21  C   UNL d   1      17.040  35.669  29.959  0.00  0.00     0.027 C 
BRANCH  21  22
ATOM     22  C   UNL d   1      18.339  36.166  30.584  0.00  0.00     0.004 C 
BRANCH  22  23
ATOM     23  C   UNL d   1      19.122  37.006  29.575  0.00  0.00    -0.000 C 
BRANCH  23  24
ATOM     24  C   UNL d   1      20.211  36.184  28.896  0.00  0.00    -0.005 C 
ATOM     25  C   UNL d   1      21.375  35.929  29.838  0.00  0.00     0.005 C 
ENDBRANCH  23  24
ENDBRANCH  22  23
ENDBRANCH  21  22
ENDBRANCH  20  21
ENDBRANCH  18  19
ENDBRANCH  17  18
ENDBRANCH  15  16
ENDBRANCH   1  15
TORSDOF 16
ENDMDL
MODEL 8
REMARK VINA RESULT:      -2.9     34.190     35.893
REMARK  16 active torsions:
REMARK  status: ('A' for Active; 'I' for Inactive)
REMARK    1  A    between atoms: C_2  and  C_3 
REMARK    2  A    between atoms: C_3  and  C_4 
REMARK    3  A    between atoms: C_4  and  C_5 
REMARK    4  A    between atoms: C_5  and  C_6 
REMARK    5  A    between atoms: C_7  and  C_8 
REMARK    6  A    between atoms: C_8  and  C_9 
REMARK    7  A    between atoms: C_10  and  C_11 
REMARK    8  A    between atoms: C_11  and  C_12 
REMARK    9  A    between atoms: C_13  and  C_14 
REMARK   10  A    between atoms: C_15  and  C_16 
REMARK   11  A    between atoms: C_16  and  O_18 
REMARK   12  A    between atoms: C_16  and  C_17 
REMARK   13  A    between atoms: C_17  and  C_19 
REMARK   14  A    between atoms: C_19  and  C_20 
REMARK   15  A    between atoms: C_20  and  C_21 
REMARK   16  A    between atoms: C_21  and  O_23 
ROOT
ATOM      1  C   UNL d   1      23.476   3.008  33.499  0.00  0.00    -0.023 C 
ATOM      2  C   UNL d   1      23.812   1.753  33.831  0.00  0.00    -0.004 C 
ENDROOT
BRANCH   2   3
ATOM      3  C   UNL d   1      23.490   1.140  35.092  0.00  0.00    -0.002 C 
ATOM      4  C   UNL d   1      24.363   0.983  36.097  0.00  0.00     0.004 C 
BRANCH   4   5
ATOM      5  C   UNL d   1      23.943   0.389  37.411  0.00  0.00     0.141 C 
BRANCH   5   6
ATOM      6  O   UNL d   1      22.993   1.256  38.019  0.00  0.00    -0.392 OA
ATOM      7  H   UNL d   1      22.277   1.415  37.384  0.00  0.00     0.210 HD
ENDBRANCH   5   6
BRANCH   5   8
ATOM      8  C   UNL d   1      23.317  -1.000  37.258  0.00  0.00     0.036 C 
BRANCH   8   9
ATOM      9  C   UNL d   1      21.932  -1.110  37.901  0.00  0.00     0.013 C 
BRANCH   9  10
ATOM     10  C   UNL d   1      20.836  -1.228  36.844  0.00  0.00     0.110 C 
BRANCH  10  11
ATOM     11  C   UNL d   1      19.865  -2.342  37.166  0.00  0.00     0.139 C 
ATOM     12  O   UNL d   1      18.902  -2.656  36.494  0.00  0.00    -0.650 OA
BRANCH  11  13
ATOM     13  O   UNL d   1      20.185  -2.980  38.315  0.00  0.00    -0.776 OA
ATOM     14  H   UNL d   1      20.842  -3.691  38.204  0.00  0.00     0.167 HD
ENDBRANCH  11  13
ENDBRANCH  10  11
ENDBRANCH   9  10
ENDBRANCH   8   9
ENDBRANCH   5   8
ENDBRANCH   4   5
ENDBRANCH   2   3
BRANCH   1  15
ATOM     15  C   UNL d   1      22.695   3.999  34.325  0.00  0.00     0.054 C 
BRANCH  15  16
ATOM     16  C   UNL d   1      22.760   5.404  33.779  0.00  0.00    -0.027 C 
ATOM     17  C   UNL d   1      22.056   5.868  32.734  0.00  0.00    -0.027 C 
BRANCH  17  18
ATOM     18  C   UNL d   1      21.109   5.021  31.938  0.00  0.00     0.053 C 
BRANCH  18  19
ATOM     19  C   UNL d   1      19.669   5.366  32.160  0.00  0.00    -0.027 C 
ATOM     20  C   UNL d   1      18.656   4.491  32.043  0.00  0.00    -0.030 C 
BRANCH  20  21
ATOM     21  C   UNL d   1      18.847   3.061  31.617  0.00  0.00     0.027 C 
BRANCH  21  22
ATOM     22  C   UNL d   1      18.623   2.062  32.746  0.00  0.00     0.004 C 
BRANCH  22  23
ATOM     23  C   UNL d   1      19.951   1.730  33.428  0.00  0.00    -0.000 C 
BRANCH  23  24
ATOM     24  C   UNL d   1      20.181   0.225  33.488  0.00  0.00    -0.005 C 
ATOM     25  C   UNL d   1      18.888  -0.519  33.772  0.00  0.00     0.005 C 
ENDBRANCH  23  24
ENDBRANCH  22  23
ENDBRANCH  21  22
ENDBRANCH  20  21
ENDBRANCH  18  19
ENDBRANCH  17  18
ENDBRANCH  15  16
ENDBRANCH   1  15
TORSDOF 16
ENDMDL
MODEL 9
REMARK VINA RESULT:      -2.9     13.457     16.116
REMARK  16 active torsions:
REMARK  status: ('A' for Active; 'I' for Inactive)
REMARK    1  A    between atoms: C_2  and  C_3 
REMARK    2  A    between atoms: C_3  and  C_4 
REMARK    3  A    between atoms: C_4  and  C_5 
REMARK    4  A    between atoms: C_5  and  C_6 
REMARK    5  A    between atoms: C_7  and  C_8 
REMARK    6  A    between atoms: C_8  and  C_9 
REMARK    7  A    between atoms: C_10  and  C_11 
REMARK    8  A    between atoms: C_11  and  C_12 
REMARK    9  A    between atoms: C_13  and  C_14 
REMARK   10  A    between atoms: C_15  and  C_16 
REMARK   11  A    between atoms: C_16  and  O_18 
REMARK   12  A    between atoms: C_16  and  C_17 
REMARK   13  A    between atoms: C_17  and  C_19 
REMARK   14  A    between atoms: C_19  and  C_20 
REMARK   15  A    between atoms: C_20  and  C_21 
REMARK   16  A    between atoms: C_21  and  O_23 
ROOT
ATOM      1  C   UNL d   1      11.747  24.060  26.386  0.00  0.00    -0.023 C 
ATOM      2  C   UNL d   1      10.822  23.109  26.584  0.00  0.00    -0.004 C 
ENDROOT
BRANCH   2   3
ATOM      3  C   UNL d   1      10.684  22.365  27.809  0.00  0.00    -0.002 C 
ATOM      4  C   UNL d   1      10.124  21.150  27.891  0.00  0.00     0.004 C 
BRANCH   4   5
ATOM      5  C   UNL d   1      10.066  20.403  29.193  0.00  0.00     0.141 C 
BRANCH   5   6
ATOM      6  O   UNL d   1      11.336  20.498  29.828  0.00  0.00    -0.392 OA
ATOM      7  H   UNL d   1      11.234  21.034  30.629  0.00  0.00     0.210 HD
ENDBRANCH   5   6
BRANCH   5   8
ATOM      8  C   UNL d   1       8.997  20.951  30.141  0.00  0.00     0.036 C 
BRANCH   8   9
ATOM      9  C   UNL d   1       9.580  21.547  31.425  0.00  0.00     0.013 C 
BRANCH   9  10
ATOM     10  C   UNL d   1       9.071  20.809  32.662  0.00  0.00     0.110 C 
BRANCH  10  11
ATOM     11  C   UNL d   1       9.585  19.388  32.718  0.00  0.00     0.139 C 
ATOM     12  O   UNL d   1       8.898  18.394  32.849  0.00  0.00    -0.650 OA
BRANCH  11  13
ATOM     13  O   UNL d   1      10.931  19.328  32.602  0.00  0.00    -0.776 OA
ATOM     14  H   UNL d   1      11.318  18.485  32.900  0.00  0.00     0.167 HD
ENDBRANCH  11  13
ENDBRANCH  10  11
ENDBRANCH   9  10
ENDBRANCH   8   9
ENDBRANCH   5   8
ENDBRANCH   4   5
ENDBRANCH   2   3
BRANCH   1  15
ATOM     15  C   UNL d   1      12.780  24.557  27.366  0.00  0.00     0.054 C 
BRANCH  15  16
ATOM     16  C   UNL d   1      14.091  23.818  27.266  0.00  0.00    -0.027 C 
ATOM     17  C   UNL d   1      14.643  23.073  28.238  0.00  0.00    -0.027 C 
BRANCH  17  18
ATOM     18  C   UNL d   1      14.022  22.895  29.591  0.00  0.00     0.053 C 
BRANCH  18  19
ATOM     19  C   UNL d   1      15.022  22.838  30.704  0.00  0.00    -0.027 C 
ATOM     20  C   UNL d   1      15.298  21.732  31.416  0.00  0.00    -0.030 C 
BRANCH  20  21
ATOM     21  C   UNL d   1      14.585  20.422  31.213  0.00  0.00     0.027 C 
BRANCH  21  22
ATOM     22  C   UNL d   1      15.519  19.288  30.804  0.00  0.00     0.004 C 
BRANCH  22  23
ATOM     23  C   UNL d   1      15.602  19.199  29.280  0.00  0.00    -0.000 C 
BRANCH  23  24
ATOM     24  C   UNL d   1      16.944  19.710  28.768  0.00  0.00    -0.005 C 
ATOM     25  C   UNL d   1      16.807  20.325  27.386  0.00  0.00     0.005 C 
ENDBRANCH  23  24
ENDBRANCH  22  23
ENDBRANCH  21  22
ENDBRANCH  20  21
ENDBRANCH  18  19
ENDBRANCH  17  18
ENDBRANCH  15  16
ENDBRANCH   1  15
TORSDOF 16
ENDMDL
