MODEL 1
REMARK VINA RESULT:      -6.7      0.000      0.000
REMARK WARNING: 32 MAX_TORS EXCEEDED!!!
REMARK  50 active torsions:
REMARK  status: ('A' for Active; 'I' for Inactive)
REMARK    1  A    between atoms: C_3  and  C_2 
REMARK    2  A    between atoms: C_4  and  C_3 
REMARK    3  A    between atoms: C_5  and  C_4 
REMARK    4  A    between atoms: C_6  and  C_5 
REMARK    5  A    between atoms: C_7  and  C_6 
REMARK    6  A    between atoms: C_8  and  C_7 
REMARK    7  A    between atoms: C_9  and  C_8 
REMARK    8  A    between atoms: C_10  and  C_9 
REMARK    9  A    between atoms: C_11  and  C_10 
REMARK   10  A    between atoms: C_12  and  C_11 
REMARK   11  A    between atoms: C_13  and  C_12 
REMARK   12  A    between atoms: C_14  and  C_13 
REMARK   13  A    between atoms: C_15  and  C_14 
REMARK   14  A    between atoms: C_16  and  C_15 
REMARK   15  A    between atoms: O_17  and  C_16 
REMARK   16  A    between atoms: C_19  and  O_17 
REMARK   17  A    between atoms: C_20  and  C_19 
REMARK   18  A    between atoms: C_20  and  C_22 
REMARK   19  A    between atoms: C_20  and  O_21 
REMARK   20  A    between atoms: O_21  and  C_23 
REMARK   21  A    between atoms: C_22  and  O_24 
REMARK   22  A    between atoms: C_23  and  C_25 
REMARK   23  A    between atoms: O_24  and  P_27 
REMARK   24  A    between atoms: C_25  and  C_28 
REMARK   25  A    between atoms: P_27  and  O_31 
REMARK   26  A    between atoms: P_27  and  O_29 
REMARK   27  A    between atoms: C_28  and  C_32 
REMARK   28  A    between atoms: O_29  and  C_33 
REMARK   29  A    between atoms: C_32  and  C_34 
REMARK   30  A    between atoms: C_34  and  C_37 
REMARK   31  A    between atoms: C_35  and  O_38 
REMARK   32  A    between atoms: C_36  and  O_40 
REMARK   33  A    between atoms: C_37  and  C_42 
REMARK   34  A    between atoms: C_39  and  O_43 
REMARK   35  A    between atoms: C_41  and  O_45 
REMARK   36  A    between atoms: C_42  and  C_46 
REMARK   37  A    between atoms: O_44  and  P_47 
REMARK   38  A    between atoms: O_45  and  P_48 
REMARK   39  A    between atoms: C_46  and  C_49 
REMARK   40  A    between atoms: P_47  and  O_51 
REMARK   41  A    between atoms: P_47  and  O_52 
REMARK   42  A    between atoms: P_48  and  O_54 
REMARK   43  A    between atoms: P_48  and  O_55 
REMARK   44  A    between atoms: C_56  and  C_57 
REMARK   45  A    between atoms: C_57  and  C_58 
REMARK   46  A    between atoms: C_58  and  C_59 
REMARK   47  A    between atoms: C_59  and  C_60 
REMARK   48  A    between atoms: C_60  and  C_61 
REMARK   49  A    between atoms: C_61  and  C_62 
REMARK   50  A    between atoms: C_62  and  C_63 
ROOT
ATOM      1  C   UNL d   1       9.742  10.524  18.460  0.00  0.00     0.180 C 
ENDROOT
BRANCH   1   2
ATOM      2  C   UNL d   1       9.518   9.499  17.329  0.00  0.00     0.215 C 
BRANCH   2   3
ATOM      3  O   UNL d   1       8.911   8.275  17.769  0.00  0.00    -0.294 OA
BRANCH   3   4
ATOM      4  P   UNL d   1       9.799   6.843  17.374  0.00  0.00     0.393 P 
ATOM      5  O   UNL d   1       8.771   6.088  18.240  0.00  0.00    -0.631 OA
BRANCH   4   6
ATOM      6  O   UNL d   1      10.869   7.071  18.582  0.00  0.00    -0.307 OA
ATOM      7  H   UNL d   1      11.380   6.230  18.638  0.00  0.00     0.222 HD
ENDBRANCH   4   6
BRANCH   4   8
ATOM      8  O   UNL d   1      10.685   5.410  16.978  0.00  0.00    -0.286 OA
BRANCH   8   9
ATOM      9  C   UNL d   1       9.685   4.373  16.751  0.00  0.00     0.196 C 
ATOM     10  C   UNL d   1       9.964   3.083  17.525  0.00  0.00     0.181 C 
ATOM     11  C   UNL d   1      11.348   2.504  17.135  0.00  0.00     0.180 C 
ATOM     12  O   UNL d   1      11.386   2.373  15.721  0.00  0.00     0.000 OA
ATOM     13  C   UNL d   1      11.165   3.611  15.077  0.00  0.00     0.197 C 
ATOM     14  C   UNL d   1       9.730   4.064  15.244  0.00  0.00     0.182 C 
BRANCH  10  15
ATOM     15  O   UNL d   1       8.954   2.118  17.170  0.00  0.00    -0.390 OA
ATOM     16  H   UNL d   1       8.950   1.396  17.844  0.00  0.00     0.210 HD
ENDBRANCH  10  15
BRANCH  11  17
ATOM     17  O   UNL d   1      12.413   3.339  17.586  0.00  0.00    -0.390 OA
ATOM     18  H   UNL d   1      12.080   4.146  18.039  0.00  0.00     0.210 HD
ENDBRANCH  11  17
BRANCH  12  19
ATOM     19  P   UNL d   1      10.649   1.037  15.147  0.00  0.00     0.347 P 
ATOM     20  O   UNL d   1       9.476   1.463  14.349  0.00  0.00    -0.645 OA
BRANCH  19  21
ATOM     21  O   UNL d   1      11.763   0.359  14.207  0.00  0.00    -0.321 OA
ATOM     22  H   UNL d   1      12.568  -0.042  14.593  0.00  0.00     0.220 HD
ENDBRANCH  19  21
BRANCH  19  23
ATOM     23  O   UNL d   1      10.433  -0.042  16.286  0.00  0.00    -0.321 OA
ATOM     24  H   UNL d   1       9.632   0.134  16.842  0.00  0.00     0.220 HD
ENDBRANCH  19  23
ENDBRANCH  12  19
BRANCH  13  25
ATOM     25  O   UNL d   1      11.400   3.912  13.722  0.00  0.00    -0.286 OA
BRANCH  25  26
ATOM     26  P   UNL d   1      13.056   4.409  13.629  0.00  0.00     0.391 P 
ATOM     27  O   UNL d   1      14.536   4.853  13.545  0.00  0.00    -0.632 OA
BRANCH  26  28
ATOM     28  O   UNL d   1      12.858   4.788  15.199  0.00  0.00    -0.307 OA
ATOM     29  H   UNL d   1      12.309   4.195  15.740  0.00  0.00     0.222 HD
ENDBRANCH  26  28
BRANCH  26  30
ATOM     30  O   UNL d   1      13.375   2.838  13.887  0.00  0.00    -0.307 OA
ATOM     31  H   UNL d   1      13.247   2.472  14.785  0.00  0.00     0.222 HD
ENDBRANCH  26  30
ENDBRANCH  25  26
ENDBRANCH  13  25
BRANCH  14  32
ATOM     32  O   UNL d   1       9.530   5.158  14.335  0.00  0.00    -0.390 OA
ATOM     33  H   UNL d   1       8.627   5.097  13.938  0.00  0.00     0.210 HD
ENDBRANCH  14  32
ENDBRANCH   8   9
ENDBRANCH   4   8
ENDBRANCH   3   4
ENDBRANCH   2   3
ENDBRANCH   1   2
BRANCH   1  34
ATOM     34  O   UNL d   1      11.151  10.781  18.618  0.00  0.00    -0.312 OA
BRANCH  34  35
ATOM     35  C   UNL d   1      11.672  11.737  17.791  0.00  0.00     0.259 C 
ATOM     36  O   UNL d   1      12.556  11.550  16.970  0.00  0.00    -0.265 OA
BRANCH  35  37
ATOM     37  C   UNL d   1      10.952  13.049  17.959  0.00  0.00     0.111 C 
BRANCH  37  38
ATOM     38  C   UNL d   1      11.404  14.079  16.936  0.00  0.00     0.010 C 
BRANCH  38  39
ATOM     39  C   UNL d   1      12.552  14.926  17.477  0.00  0.00     0.000 C 
BRANCH  39  40
ATOM     40  C   UNL d   1      12.883  16.023  16.478  0.00  0.00     0.000 C 
BRANCH  40  41
ATOM     41  C   UNL d   1      11.660  16.861  16.122  0.00  0.00     0.000 C 
BRANCH  41  42
ATOM     42  C   UNL d   1      12.058  18.160  15.418  0.00  0.00     0.004 C 
BRANCH  42  43
ATOM     43  C   UNL d   1      11.298  19.395  15.908  0.00  0.00     0.027 C 
BRANCH  43  44
ATOM     44  C   UNL d   1      11.166  19.423  17.408  0.00  0.00    -0.031 C 
ATOM     45  C   UNL d   1      10.405  20.294  18.082  0.00  0.00    -0.031 C 
BRANCH  45  46
ATOM     46  C   UNL d   1       9.568  21.315  17.385  0.00  0.00     0.027 C 
BRANCH  46  47
ATOM     47  C   UNL d   1       9.063  22.395  18.320  0.00  0.00     0.004 C 
BRANCH  47  48
ATOM     48  C   UNL d   1       7.716  21.963  18.880  0.00  0.00     0.000 C 
BRANCH  48  49
ATOM     49  C   UNL d   1       7.507  22.557  20.260  0.00  0.00     0.000 C 
BRANCH  49  50
ATOM     50  C   UNL d   1       6.072  22.341  20.717  0.00  0.00     0.000 C 
BRANCH  50  51
ATOM     51  C   UNL d   1       5.617  20.937  20.349  0.00  0.00    -0.000 C 
BRANCH  51  52
ATOM     52  C   UNL d   1       4.142  20.922  19.975  0.00  0.00    -0.005 C 
ATOM     53  C   UNL d   1       3.276  21.130  21.204  0.00  0.00     0.005 C 
ENDBRANCH  51  52
ENDBRANCH  50  51
ENDBRANCH  49  50
ENDBRANCH  48  49
ENDBRANCH  47  48
ENDBRANCH  46  47
ENDBRANCH  45  46
ENDBRANCH  43  44
ENDBRANCH  42  43
ENDBRANCH  41  42
ENDBRANCH  40  41
ENDBRANCH  39  40
ENDBRANCH  38  39
ENDBRANCH  37  38
ENDBRANCH  35  37
ENDBRANCH  34  35
ENDBRANCH   1  34
BRANCH   1  54
ATOM     54  C   UNL d   1       9.167   9.962  19.767  0.00  0.00     0.213 C 
BRANCH  54  55
ATOM     55  O   UNL d   1      10.167   9.371  20.606  0.00  0.00    -0.319 OA
BRANCH  55  56
ATOM     56  C   UNL d   1       9.823   8.932  21.844  0.00  0.00     0.258 C 
ATOM     57  O   UNL d   1      10.582   8.398  22.649  0.00  0.00    -0.265 OA
BRANCH  56  58
ATOM     58  C   UNL d   1       8.383   9.297  22.145  0.00  0.00     0.111 C 
BRANCH  58  59
ATOM     59  C   UNL d   1       8.149   9.553  23.633  0.00  0.00     0.010 C 
BRANCH  59  60
ATOM     60  C   UNL d   1       7.172  10.693  23.906  0.00  0.00     0.000 C 
BRANCH  60  61
ATOM     61  C   UNL d   1       6.066  10.671  22.852  0.00  0.00     0.000 C 
BRANCH  61  62
ATOM     62  C   UNL d   1       5.841  12.049  22.247  0.00  0.00     0.000 C 
BRANCH  62  63
ATOM     63  C   UNL d   1       6.304  12.080  20.794  0.00  0.00     0.000 C 
BRANCH  63  64
ATOM     64  C   UNL d   1       5.959  13.425  20.167  0.00  0.00     0.000 C 
BRANCH  64  65
ATOM     65  C   UNL d   1       5.531  13.254  18.717  0.00  0.00     0.000 C 
BRANCH  65  66
ATOM     66  C   UNL d   1       6.101  14.376  17.859  0.00  0.00     0.000 C 
BRANCH  66  67
ATOM     67  C   UNL d   1       7.501  14.740  18.331  0.00  0.00     0.000 C 
BRANCH  67  68
ATOM     68  C   UNL d   1       8.115  15.798  17.426  0.00  0.00     0.000 C 
BRANCH  68  69
ATOM     69  C   UNL d   1       8.464  17.047  18.225  0.00  0.00     0.000 C 
BRANCH  69  70
ATOM     70  C   UNL d   1       9.586  16.752  19.211  0.00  0.00    -0.000 C 
BRANCH  70  71
ATOM     71  C   UNL d   1       9.321  17.420  20.557  0.00  0.00    -0.005 C 
ATOM     72  C   UNL d   1       8.491  18.679  20.381  0.00  0.00     0.005 C 
ENDBRANCH  70  71
ENDBRANCH  69  70
ENDBRANCH  68  69
ENDBRANCH  67  68
ENDBRANCH  66  67
ENDBRANCH  65  66
ENDBRANCH  64  65
ENDBRANCH  63  64
ENDBRANCH  62  63
ENDBRANCH  61  62
ENDBRANCH  60  61
ENDBRANCH  59  60
ENDBRANCH  58  59
ENDBRANCH  56  58
ENDBRANCH  55  56
ENDBRANCH  54  55
ENDBRANCH   1  54
TORSDOF 50
ENDMDL
MODEL 2
REMARK VINA RESULT:      -6.7      1.479      2.142
REMARK WARNING: 32 MAX_TORS EXCEEDED!!!
REMARK  50 active torsions:
REMARK  status: ('A' for Active; 'I' for Inactive)
REMARK    1  A    between atoms: C_3  and  C_2 
REMARK    2  A    between atoms: C_4  and  C_3 
REMARK    3  A    between atoms: C_5  and  C_4 
REMARK    4  A    between atoms: C_6  and  C_5 
REMARK    5  A    between atoms: C_7  and  C_6 
REMARK    6  A    between atoms: C_8  and  C_7 
REMARK    7  A    between atoms: C_9  and  C_8 
REMARK    8  A    between atoms: C_10  and  C_9 
REMARK    9  A    between atoms: C_11  and  C_10 
REMARK   10  A    between atoms: C_12  and  C_11 
REMARK   11  A    between atoms: C_13  and  C_12 
REMARK   12  A    between atoms: C_14  and  C_13 
REMARK   13  A    between atoms: C_15  and  C_14 
REMARK   14  A    between atoms: C_16  and  C_15 
REMARK   15  A    between atoms: O_17  and  C_16 
REMARK   16  A    between atoms: C_19  and  O_17 
REMARK   17  A    between atoms: C_20  and  C_19 
REMARK   18  A    between atoms: C_20  and  C_22 
REMARK   19  A    between atoms: C_20  and  O_21 
REMARK   20  A    between atoms: O_21  and  C_23 
REMARK   21  A    between atoms: C_22  and  O_24 
REMARK   22  A    between atoms: C_23  and  C_25 
REMARK   23  A    between atoms: O_24  and  P_27 
REMARK   24  A    between atoms: C_25  and  C_28 
REMARK   25  A    between atoms: P_27  and  O_31 
REMARK   26  A    between atoms: P_27  and  O_29 
REMARK   27  A    between atoms: C_28  and  C_32 
REMARK   28  A    between atoms: O_29  and  C_33 
REMARK   29  A    between atoms: C_32  and  C_34 
REMARK   30  A    between atoms: C_34  and  C_37 
REMARK   31  A    between atoms: C_35  and  O_38 
REMARK   32  A    between atoms: C_36  and  O_40 
REMARK   33  A    between atoms: C_37  and  C_42 
REMARK   34  A    between atoms: C_39  and  O_43 
REMARK   35  A    between atoms: C_41  and  O_45 
REMARK   36  A    between atoms: C_42  and  C_46 
REMARK   37  A    between atoms: O_44  and  P_47 
REMARK   38  A    between atoms: O_45  and  P_48 
REMARK   39  A    between atoms: C_46  and  C_49 
REMARK   40  A    between atoms: P_47  and  O_51 
REMARK   41  A    between atoms: P_47  and  O_52 
REMARK   42  A    between atoms: P_48  and  O_54 
REMARK   43  A    between atoms: P_48  and  O_55 
REMARK   44  A    between atoms: C_56  and  C_57 
REMARK   45  A    between atoms: C_57  and  C_58 
REMARK   46  A    between atoms: C_58  and  C_59 
REMARK   47  A    between atoms: C_59  and  C_60 
REMARK   48  A    between atoms: C_60  and  C_61 
REMARK   49  A    between atoms: C_61  and  C_62 
REMARK   50  A    between atoms: C_62  and  C_63 
ROOT
ATOM      1  C   UNL d   1       9.540  10.562  18.166  0.00  0.00     0.180 C 
ENDROOT
BRANCH   1   2
ATOM      2  C   UNL d   1       8.383   9.775  17.516  0.00  0.00     0.215 C 
BRANCH   2   3
ATOM      3  O   UNL d   1       8.714   9.208  16.240  0.00  0.00    -0.294 OA
BRANCH   3   4
ATOM      4  P   UNL d   1       8.816   7.481  16.220  0.00  0.00     0.393 P 
ATOM      5  O   UNL d   1      10.109   7.667  15.401  0.00  0.00    -0.631 OA
BRANCH   4   6
ATOM      6  O   UNL d   1       7.838   7.354  14.922  0.00  0.00    -0.307 OA
ATOM      7  H   UNL d   1       8.385   6.920  14.225  0.00  0.00     0.222 HD
ENDBRANCH   4   6
BRANCH   4   8
ATOM      8  O   UNL d   1       8.919   5.753  16.199  0.00  0.00    -0.286 OA
BRANCH   8   9
ATOM      9  C   UNL d   1       8.498   5.345  14.863  0.00  0.00     0.196 C 
ATOM     10  C   UNL d   1       7.333   4.354  14.871  0.00  0.00     0.181 C 
ATOM     11  C   UNL d   1       7.712   3.077  15.662  0.00  0.00     0.180 C 
ATOM     12  O   UNL d   1       8.923   2.569  15.123  0.00  0.00     0.000 OA
ATOM     13  C   UNL d   1       9.964   3.523  15.191  0.00  0.00     0.197 C 
ATOM     14  C   UNL d   1       9.722   4.663  14.224  0.00  0.00     0.182 C 
BRANCH  10  15
ATOM     15  O   UNL d   1       7.054   3.976  13.508  0.00  0.00    -0.390 OA
ATOM     16  H   UNL d   1       7.827   3.476  13.150  0.00  0.00     0.210 HD
ENDBRANCH  10  15
BRANCH  11  17
ATOM     17  O   UNL d   1       7.863   3.346  17.056  0.00  0.00    -0.390 OA
ATOM     18  H   UNL d   1       7.376   4.157  17.327  0.00  0.00     0.210 HD
ENDBRANCH  11  17
BRANCH  12  19
ATOM     19  P   UNL d   1       8.741   1.690  13.762  0.00  0.00     0.347 P 
ATOM     20  O   UNL d   1       9.300   2.466  12.631  0.00  0.00    -0.645 OA
BRANCH  19  21
ATOM     21  O   UNL d   1       9.617   0.371  14.037  0.00  0.00    -0.321 OA
ATOM     22  H   UNL d   1      10.148   0.283  14.855  0.00  0.00     0.220 HD
ENDBRANCH  19  21
BRANCH  19  23
ATOM     23  O   UNL d   1       7.267   1.123  13.630  0.00  0.00    -0.321 OA
ATOM     24  H   UNL d   1       6.846   1.333  12.758  0.00  0.00     0.220 HD
ENDBRANCH  19  23
ENDBRANCH  12  19
BRANCH  13  25
ATOM     25  O   UNL d   1      11.340   3.286  15.009  0.00  0.00    -0.286 OA
BRANCH  25  26
ATOM     26  P   UNL d   1      11.986   3.022  16.593  0.00  0.00     0.391 P 
ATOM     27  O   UNL d   1      12.565   2.786  18.009  0.00  0.00    -0.632 OA
BRANCH  26  28
ATOM     28  O   UNL d   1      12.715   4.457  16.354  0.00  0.00    -0.307 OA
ATOM     29  H   UNL d   1      13.120   4.617  15.485  0.00  0.00     0.222 HD
ENDBRANCH  26  28
BRANCH  26  30
ATOM     30  O   UNL d   1      10.576   3.647  17.099  0.00  0.00    -0.307 OA
ATOM     31  H   UNL d   1      10.308   3.515  18.029  0.00  0.00     0.222 HD
ENDBRANCH  26  30
ENDBRANCH  25  26
ENDBRANCH  13  25
BRANCH  14  32
ATOM     32  O   UNL d   1      10.943   5.417  14.155  0.00  0.00    -0.390 OA
ATOM     33  H   UNL d   1      10.742   6.349  13.894  0.00  0.00     0.210 HD
ENDBRANCH  14  32
ENDBRANCH   8   9
ENDBRANCH   4   8
ENDBRANCH   3   4
ENDBRANCH   2   3
ENDBRANCH   1   2
BRANCH   1  34
ATOM     34  O   UNL d   1      10.803   9.977  17.789  0.00  0.00    -0.312 OA
BRANCH  34  35
ATOM     35  C   UNL d   1      11.623  10.778  17.043  0.00  0.00     0.259 C 
ATOM     36  O   UNL d   1      12.130  10.466  15.977  0.00  0.00    -0.265 OA
BRANCH  35  37
ATOM     37  C   UNL d   1      11.759  12.144  17.665  0.00  0.00     0.111 C 
BRANCH  37  38
ATOM     38  C   UNL d   1      12.442  13.128  16.729  0.00  0.00     0.010 C 
BRANCH  38  39
ATOM     39  C   UNL d   1      13.284  14.134  17.508  0.00  0.00     0.000 C 
BRANCH  39  40
ATOM     40  C   UNL d   1      13.705  15.263  16.581  0.00  0.00     0.000 C 
BRANCH  40  41
ATOM     41  C   UNL d   1      12.518  15.868  15.840  0.00  0.00     0.000 C 
BRANCH  41  42
ATOM     42  C   UNL d   1      12.709  17.369  15.607  0.00  0.00     0.004 C 
BRANCH  42  43
ATOM     43  C   UNL d   1      11.409  18.174  15.622  0.00  0.00     0.027 C 
BRANCH  43  44
ATOM     44  C   UNL d   1      11.652  19.650  15.451  0.00  0.00    -0.031 C 
ATOM     45  C   UNL d   1      11.273  20.584  16.333  0.00  0.00    -0.031 C 
BRANCH  45  46
ATOM     46  C   UNL d   1      10.595  20.231  17.615  0.00  0.00     0.027 C 
BRANCH  46  47
ATOM     47  C   UNL d   1       9.084  20.296  17.515  0.00  0.00     0.004 C 
BRANCH  47  48
ATOM     48  C   UNL d   1       8.506  20.355  18.921  0.00  0.00     0.000 C 
BRANCH  48  49
ATOM     49  C   UNL d   1       6.995  20.244  18.871  0.00  0.00     0.000 C 
BRANCH  49  50
ATOM     50  C   UNL d   1       6.373  20.927  20.080  0.00  0.00     0.000 C 
BRANCH  50  51
ATOM     51  C   UNL d   1       4.877  20.657  20.114  0.00  0.00    -0.000 C 
BRANCH  51  52
ATOM     52  C   UNL d   1       4.099  21.930  20.422  0.00  0.00    -0.005 C 
ATOM     53  C   UNL d   1       4.647  22.601  21.669  0.00  0.00     0.005 C 
ENDBRANCH  51  52
ENDBRANCH  50  51
ENDBRANCH  49  50
ENDBRANCH  48  49
ENDBRANCH  47  48
ENDBRANCH  46  47
ENDBRANCH  45  46
ENDBRANCH  43  44
ENDBRANCH  42  43
ENDBRANCH  41  42
ENDBRANCH  40  41
ENDBRANCH  39  40
ENDBRANCH  38  39
ENDBRANCH  37  38
ENDBRANCH  35  37
ENDBRANCH  34  35
ENDBRANCH   1  34
BRANCH   1  54
ATOM     54  C   UNL d   1       9.383  10.517  19.691  0.00  0.00     0.213 C 
BRANCH  54  55
ATOM     55  O   UNL d   1       9.957   9.341  20.276  0.00  0.00    -0.319 OA
BRANCH  55  56
ATOM     56  C   UNL d   1       9.722   9.066  21.585  0.00  0.00     0.258 C 
ATOM     57  O   UNL d   1      10.582   8.844  22.434  0.00  0.00    -0.265 OA
BRANCH  56  58
ATOM     58  C   UNL d   1       8.241   9.186  21.885  0.00  0.00     0.111 C 
BRANCH  58  59
ATOM     59  C   UNL d   1       7.963   9.345  23.379  0.00  0.00     0.010 C 
BRANCH  59  60
ATOM     60  C   UNL d   1       7.184  10.611  23.720  0.00  0.00     0.000 C 
BRANCH  60  61
ATOM     61  C   UNL d   1       5.974  10.723  22.792  0.00  0.00     0.000 C 
BRANCH  61  62
ATOM     62  C   UNL d   1       5.796  12.141  22.271  0.00  0.00     0.000 C 
BRANCH  62  63
ATOM     63  C   UNL d   1       6.270  12.245  20.825  0.00  0.00     0.000 C 
BRANCH  63  64
ATOM     64  C   UNL d   1       6.029  13.654  20.299  0.00  0.00     0.000 C 
BRANCH  64  65
ATOM     65  C   UNL d   1       5.986  13.666  18.778  0.00  0.00     0.000 C 
BRANCH  65  66
ATOM     66  C   UNL d   1       6.998  14.662  18.226  0.00  0.00     0.000 C 
BRANCH  66  67
ATOM     67  C   UNL d   1       8.396  14.060  18.251  0.00  0.00     0.000 C 
BRANCH  67  68
ATOM     68  C   UNL d   1       9.392  14.988  17.572  0.00  0.00     0.000 C 
BRANCH  68  69
ATOM     69  C   UNL d   1       9.245  16.409  18.103  0.00  0.00     0.000 C 
BRANCH  69  70
ATOM     70  C   UNL d   1      10.504  16.831  18.851  0.00  0.00    -0.000 C 
BRANCH  70  71
ATOM     71  C   UNL d   1      10.164  17.342  20.247  0.00  0.00    -0.005 C 
ATOM     72  C   UNL d   1       8.690  17.144  20.551  0.00  0.00     0.005 C 
ENDBRANCH  70  71
ENDBRANCH  69  70
ENDBRANCH  68  69
ENDBRANCH  67  68
ENDBRANCH  66  67
ENDBRANCH  65  66
ENDBRANCH  64  65
ENDBRANCH  63  64
ENDBRANCH  62  63
ENDBRANCH  61  62
ENDBRANCH  60  61
ENDBRANCH  59  60
ENDBRANCH  58  59
ENDBRANCH  56  58
ENDBRANCH  55  56
ENDBRANCH  54  55
ENDBRANCH   1  54
TORSDOF 50
ENDMDL
MODEL 3
REMARK VINA RESULT:      -6.5      2.172      4.197
REMARK WARNING: 32 MAX_TORS EXCEEDED!!!
REMARK  50 active torsions:
REMARK  status: ('A' for Active; 'I' for Inactive)
REMARK    1  A    between atoms: C_3  and  C_2 
REMARK    2  A    between atoms: C_4  and  C_3 
REMARK    3  A    between atoms: C_5  and  C_4 
REMARK    4  A    between atoms: C_6  and  C_5 
REMARK    5  A    between atoms: C_7  and  C_6 
REMARK    6  A    between atoms: C_8  and  C_7 
REMARK    7  A    between atoms: C_9  and  C_8 
REMARK    8  A    between atoms: C_10  and  C_9 
REMARK    9  A    between atoms: C_11  and  C_10 
REMARK   10  A    between atoms: C_12  and  C_11 
REMARK   11  A    between atoms: C_13  and  C_12 
REMARK   12  A    between atoms: C_14  and  C_13 
REMARK   13  A    between atoms: C_15  and  C_14 
REMARK   14  A    between atoms: C_16  and  C_15 
REMARK   15  A    between atoms: O_17  and  C_16 
REMARK   16  A    between atoms: C_19  and  O_17 
REMARK   17  A    between atoms: C_20  and  C_19 
REMARK   18  A    between atoms: C_20  and  C_22 
REMARK   19  A    between atoms: C_20  and  O_21 
REMARK   20  A    between atoms: O_21  and  C_23 
REMARK   21  A    between atoms: C_22  and  O_24 
REMARK   22  A    between atoms: C_23  and  C_25 
REMARK   23  A    between atoms: O_24  and  P_27 
REMARK   24  A    between atoms: C_25  and  C_28 
REMARK   25  A    between atoms: P_27  and  O_31 
REMARK   26  A    between atoms: P_27  and  O_29 
REMARK   27  A    between atoms: C_28  and  C_32 
REMARK   28  A    between atoms: O_29  and  C_33 
REMARK   29  A    between atoms: C_32  and  C_34 
REMARK   30  A    between atoms: C_34  and  C_37 
REMARK   31  A    between atoms: C_35  and  O_38 
REMARK   32  A    between atoms: C_36  and  O_40 
REMARK   33  A    between atoms: C_37  and  C_42 
REMARK   34  A    between atoms: C_39  and  O_43 
REMARK   35  A    between atoms: C_41  and  O_45 
REMARK   36  A    between atoms: C_42  and  C_46 
REMARK   37  A    between atoms: O_44  and  P_47 
REMARK   38  A    between atoms: O_45  and  P_48 
REMARK   39  A    between atoms: C_46  and  C_49 
REMARK   40  A    between atoms: P_47  and  O_51 
REMARK   41  A    between atoms: P_47  and  O_52 
REMARK   42  A    between atoms: P_48  and  O_54 
REMARK   43  A    between atoms: P_48  and  O_55 
REMARK   44  A    between atoms: C_56  and  C_57 
REMARK   45  A    between atoms: C_57  and  C_58 
REMARK   46  A    between atoms: C_58  and  C_59 
REMARK   47  A    between atoms: C_59  and  C_60 
REMARK   48  A    between atoms: C_60  and  C_61 
REMARK   49  A    between atoms: C_61  and  C_62 
REMARK   50  A    between atoms: C_62  and  C_63 
ROOT
ATOM      1  C   UNL d   1       7.207  11.103  19.000  0.00  0.00     0.180 C 
ENDROOT
BRANCH   1   2
ATOM      2  C   UNL d   1       8.033  10.502  17.844  0.00  0.00     0.215 C 
BRANCH   2   3
ATOM      3  O   UNL d   1       7.254   9.736  16.914  0.00  0.00    -0.294 OA
BRANCH   3   4
ATOM      4  P   UNL d   1       8.053   8.341  16.274  0.00  0.00     0.393 P 
ATOM      5  O   UNL d   1       9.354   8.957  16.828  0.00  0.00    -0.631 OA
BRANCH   4   6
ATOM      6  O   UNL d   1       8.199   9.001  14.790  0.00  0.00    -0.307 OA
ATOM      7  H   UNL d   1       8.156   9.975  14.934  0.00  0.00     0.222 HD
ENDBRANCH   4   6
BRANCH   4   8
ATOM      8  O   UNL d   1       8.853   6.946  15.635  0.00  0.00    -0.286 OA
BRANCH   8   9
ATOM      9  C   UNL d   1       8.291   5.803  16.347  0.00  0.00     0.196 C 
ATOM     10  C   UNL d   1       8.835   5.648  17.769  0.00  0.00     0.181 C 
ATOM     11  C   UNL d   1      10.376   5.484  17.745  0.00  0.00     0.180 C 
ATOM     12  O   UNL d   1      10.691   4.414  16.865  0.00  0.00     0.000 OA
ATOM     13  C   UNL d   1      10.196   4.649  15.563  0.00  0.00     0.197 C 
ATOM     14  C   UNL d   1       8.684   4.560  15.529  0.00  0.00     0.182 C 
BRANCH  10  15
ATOM     15  O   UNL d   1       8.262   4.456  18.342  0.00  0.00    -0.390 OA
ATOM     16  H   UNL d   1       8.777   3.672  18.032  0.00  0.00     0.210 HD
ENDBRANCH  10  15
BRANCH  11  17
ATOM     17  O   UNL d   1      11.026   6.682  17.324  0.00  0.00    -0.390 OA
ATOM     18  H   UNL d   1      10.383   7.403  17.139  0.00  0.00     0.210 HD
ENDBRANCH  11  17
BRANCH  12  19
ATOM     19  P   UNL d   1      10.528   2.931  17.520  0.00  0.00     0.347 P 
ATOM     20  O   UNL d   1       9.354   2.276  16.897  0.00  0.00    -0.645 OA
BRANCH  19  21
ATOM     21  O   UNL d   1      11.887   2.178  17.108  0.00  0.00    -0.321 OA
ATOM     22  H   UNL d   1      12.687   2.686  16.862  0.00  0.00     0.220 HD
ENDBRANCH  19  21
BRANCH  19  23
ATOM     23  O   UNL d   1      10.609   2.982  19.101  0.00  0.00    -0.321 OA
ATOM     24  H   UNL d   1      10.250   3.823  19.483  0.00  0.00     0.220 HD
ENDBRANCH  19  23
ENDBRANCH  12  19
BRANCH  13  25
ATOM     25  O   UNL d   1      10.545   3.956  14.389  0.00  0.00    -0.286 OA
BRANCH  25  26
ATOM     26  P   UNL d   1      11.921   4.784  13.743  0.00  0.00     0.391 P 
ATOM     27  O   UNL d   1      13.152   5.524  13.165  0.00  0.00    -0.632 OA
BRANCH  26  28
ATOM     28  O   UNL d   1      11.238   6.098  14.415  0.00  0.00    -0.307 OA
ATOM     29  H   UNL d   1      11.271   6.930  13.913  0.00  0.00     0.222 HD
ENDBRANCH  26  28
BRANCH  26  30
ATOM     30  O   UNL d   1      12.659   4.281  15.098  0.00  0.00    -0.307 OA
ATOM     31  H   UNL d   1      12.832   3.326  15.215  0.00  0.00     0.222 HD
ENDBRANCH  26  30
ENDBRANCH  25  26
ENDBRANCH  13  25
BRANCH  14  32
ATOM     32  O   UNL d   1       8.299   4.525  14.146  0.00  0.00    -0.390 OA
ATOM     33  H   UNL d   1       9.100   4.382  13.584  0.00  0.00     0.210 HD
ENDBRANCH  14  32
ENDBRANCH   8   9
ENDBRANCH   4   8
ENDBRANCH   3   4
ENDBRANCH   2   3
ENDBRANCH   1   2
BRANCH   1  34
ATOM     34  O   UNL d   1       7.734  12.395  19.360  0.00  0.00    -0.312 OA
BRANCH  34  35
ATOM     35  C   UNL d   1       7.158  13.462  18.728  0.00  0.00     0.259 C 
ATOM     36  O   UNL d   1       5.958  13.681  18.675  0.00  0.00    -0.265 OA
BRANCH  35  37
ATOM     37  C   UNL d   1       8.203  14.393  18.171  0.00  0.00     0.111 C 
BRANCH  37  38
ATOM     38  C   UNL d   1       7.894  15.847  18.487  0.00  0.00     0.010 C 
BRANCH  38  39
ATOM     39  C   UNL d   1       8.241  16.183  19.934  0.00  0.00     0.000 C 
BRANCH  39  40
ATOM     40  C   UNL d   1       9.234  17.334  19.959  0.00  0.00     0.000 C 
BRANCH  40  41
ATOM     41  C   UNL d   1       8.616  18.636  19.463  0.00  0.00     0.000 C 
BRANCH  41  42
ATOM     42  C   UNL d   1       8.451  19.647  20.600  0.00  0.00     0.004 C 
BRANCH  42  43
ATOM     43  C   UNL d   1       7.445  20.761  20.305  0.00  0.00     0.027 C 
BRANCH  43  44
ATOM     44  C   UNL d   1       6.421  20.346  19.282  0.00  0.00    -0.031 C 
ATOM     45  C   UNL d   1       5.148  20.761  19.278  0.00  0.00    -0.031 C 
BRANCH  45  46
ATOM     46  C   UNL d   1       4.629  21.727  20.292  0.00  0.00     0.027 C 
BRANCH  46  47
ATOM     47  C   UNL d   1       3.890  21.046  21.425  0.00  0.00     0.004 C 
BRANCH  47  48
ATOM     48  C   UNL d   1       3.571  22.083  22.491  0.00  0.00     0.000 C 
BRANCH  48  49
ATOM     49  C   UNL d   1       4.476  23.289  22.336  0.00  0.00     0.000 C 
BRANCH  49  50
ATOM     50  C   UNL d   1       5.184  23.592  23.648  0.00  0.00     0.000 C 
BRANCH  50  51
ATOM     51  C   UNL d   1       6.490  24.322  23.374  0.00  0.00    -0.000 C 
BRANCH  51  52
ATOM     52  C   UNL d   1       7.023  24.981  24.640  0.00  0.00    -0.005 C 
ATOM     53  C   UNL d   1       6.664  24.156  25.863  0.00  0.00     0.005 C 
ENDBRANCH  51  52
ENDBRANCH  50  51
ENDBRANCH  49  50
ENDBRANCH  48  49
ENDBRANCH  47  48
ENDBRANCH  46  47
ENDBRANCH  45  46
ENDBRANCH  43  44
ENDBRANCH  42  43
ENDBRANCH  41  42
ENDBRANCH  40  41
ENDBRANCH  39  40
ENDBRANCH  38  39
ENDBRANCH  37  38
ENDBRANCH  35  37
ENDBRANCH  34  35
ENDBRANCH   1  34
BRANCH   1  54
ATOM     54  C   UNL d   1       7.276  10.160  20.208  0.00  0.00     0.213 C 
BRANCH  54  55
ATOM     55  O   UNL d   1       6.967  10.816  21.445  0.00  0.00    -0.319 OA
BRANCH  55  56
ATOM     56  C   UNL d   1       6.666  10.069  22.538  0.00  0.00     0.258 C 
ATOM     57  O   UNL d   1       5.685   9.339  22.656  0.00  0.00    -0.265 OA
BRANCH  56  58
ATOM     58  C   UNL d   1       7.780  10.169  23.561  0.00  0.00     0.111 C 
BRANCH  58  59
ATOM     59  C   UNL d   1       8.387   8.807  23.893  0.00  0.00     0.010 C 
BRANCH  59  60
ATOM     60  C   UNL d   1       9.178   8.198  22.740  0.00  0.00     0.000 C 
BRANCH  60  61
ATOM     61  C   UNL d   1      10.307   9.150  22.346  0.00  0.00     0.000 C 
BRANCH  61  62
ATOM     62  C   UNL d   1      11.245   8.517  21.330  0.00  0.00     0.000 C 
BRANCH  62  63
ATOM     63  C   UNL d   1      10.929   9.014  19.923  0.00  0.00     0.000 C 
BRANCH  63  64
ATOM     64  C   UNL d   1      11.143  10.519  19.841  0.00  0.00     0.000 C 
BRANCH  64  65
ATOM     65  C   UNL d   1      11.643  10.923  18.462  0.00  0.00     0.000 C 
BRANCH  65  66
ATOM     66  C   UNL d   1      11.090  12.288  18.075  0.00  0.00     0.000 C 
BRANCH  66  67
ATOM     67  C   UNL d   1      12.227  13.238  17.727  0.00  0.00     0.000 C 
BRANCH  67  68
ATOM     68  C   UNL d   1      11.930  13.981  16.433  0.00  0.00     0.000 C 
BRANCH  68  69
ATOM     69  C   UNL d   1      11.346  15.356  16.730  0.00  0.00     0.000 C 
BRANCH  69  70
ATOM     70  C   UNL d   1      12.039  15.982  17.933  0.00  0.00    -0.000 C 
BRANCH  70  71
ATOM     71  C   UNL d   1      12.218  17.484  17.741  0.00  0.00    -0.005 C 
ATOM     72  C   UNL d   1      11.978  17.876  16.294  0.00  0.00     0.005 C 
ENDBRANCH  70  71
ENDBRANCH  69  70
ENDBRANCH  68  69
ENDBRANCH  67  68
ENDBRANCH  66  67
ENDBRANCH  65  66
ENDBRANCH  64  65
ENDBRANCH  63  64
ENDBRANCH  62  63
ENDBRANCH  61  62
ENDBRANCH  60  61
ENDBRANCH  59  60
ENDBRANCH  58  59
ENDBRANCH  56  58
ENDBRANCH  55  56
ENDBRANCH  54  55
ENDBRANCH   1  54
TORSDOF 50
ENDMDL
MODEL 4
REMARK VINA RESULT:      -6.4     13.345     20.053
REMARK WARNING: 32 MAX_TORS EXCEEDED!!!
REMARK  50 active torsions:
REMARK  status: ('A' for Active; 'I' for Inactive)
REMARK    1  A    between atoms: C_3  and  C_2 
REMARK    2  A    between atoms: C_4  and  C_3 
REMARK    3  A    between atoms: C_5  and  C_4 
REMARK    4  A    between atoms: C_6  and  C_5 
REMARK    5  A    between atoms: C_7  and  C_6 
REMARK    6  A    between atoms: C_8  and  C_7 
REMARK    7  A    between atoms: C_9  and  C_8 
REMARK    8  A    between atoms: C_10  and  C_9 
REMARK    9  A    between atoms: C_11  and  C_10 
REMARK   10  A    between atoms: C_12  and  C_11 
REMARK   11  A    between atoms: C_13  and  C_12 
REMARK   12  A    between atoms: C_14  and  C_13 
REMARK   13  A    between atoms: C_15  and  C_14 
REMARK   14  A    between atoms: C_16  and  C_15 
REMARK   15  A    between atoms: O_17  and  C_16 
REMARK   16  A    between atoms: C_19  and  O_17 
REMARK   17  A    between atoms: C_20  and  C_19 
REMARK   18  A    between atoms: C_20  and  C_22 
REMARK   19  A    between atoms: C_20  and  O_21 
REMARK   20  A    between atoms: O_21  and  C_23 
REMARK   21  A    between atoms: C_22  and  O_24 
REMARK   22  A    between atoms: C_23  and  C_25 
REMARK   23  A    between atoms: O_24  and  P_27 
REMARK   24  A    between atoms: C_25  and  C_28 
REMARK   25  A    between atoms: P_27  and  O_31 
REMARK   26  A    between atoms: P_27  and  O_29 
REMARK   27  A    between atoms: C_28  and  C_32 
REMARK   28  A    between atoms: O_29  and  C_33 
REMARK   29  A    between atoms: C_32  and  C_34 
REMARK   30  A    between atoms: C_34  and  C_37 
REMARK   31  A    between atoms: C_35  and  O_38 
REMARK   32  A    between atoms: C_36  and  O_40 
REMARK   33  A    between atoms: C_37  and  C_42 
REMARK   34  A    between atoms: C_39  and  O_43 
REMARK   35  A    between atoms: C_41  and  O_45 
REMARK   36  A    between atoms: C_42  and  C_46 
REMARK   37  A    between atoms: O_44  and  P_47 
REMARK   38  A    between atoms: O_45  and  P_48 
REMARK   39  A    between atoms: C_46  and  C_49 
REMARK   40  A    between atoms: P_47  and  O_51 
REMARK   41  A    between atoms: P_47  and  O_52 
REMARK   42  A    between atoms: P_48  and  O_54 
REMARK   43  A    between atoms: P_48  and  O_55 
REMARK   44  A    between atoms: C_56  and  C_57 
REMARK   45  A    between atoms: C_57  and  C_58 
REMARK   46  A    between atoms: C_58  and  C_59 
REMARK   47  A    between atoms: C_59  and  C_60 
REMARK   48  A    between atoms: C_60  and  C_61 
REMARK   49  A    between atoms: C_61  and  C_62 
REMARK   50  A    between atoms: C_62  and  C_63 
ROOT
ATOM      1  C   UNL d   1       6.420  24.534  23.970  0.00  0.00     0.180 C 
ENDROOT
BRANCH   1   2
ATOM      2  C   UNL d   1       6.645  23.820  25.319  0.00  0.00     0.215 C 
BRANCH   2   3
ATOM      3  O   UNL d   1       7.531  24.523  26.204  0.00  0.00    -0.294 OA
BRANCH   3   4
ATOM      4  P   UNL d   1       7.215  24.280  27.888  0.00  0.00     0.393 P 
ATOM      5  O   UNL d   1       8.286  25.359  28.142  0.00  0.00    -0.631 OA
BRANCH   4   6
ATOM      6  O   UNL d   1       8.248  23.022  27.986  0.00  0.00    -0.307 OA
ATOM      7  H   UNL d   1       7.714  22.228  27.751  0.00  0.00     0.222 HD
ENDBRANCH   4   6
BRANCH   4   8
ATOM      8  O   UNL d   1       6.900  24.037  29.572  0.00  0.00    -0.286 OA
BRANCH   8   9
ATOM      9  C   UNL d   1       6.515  25.343  30.098  0.00  0.00     0.196 C 
ATOM     10  C   UNL d   1       7.042  25.607  31.509  0.00  0.00     0.181 C 
ATOM     11  C   UNL d   1       6.524  24.526  32.492  0.00  0.00     0.180 C 
ATOM     12  O   UNL d   1       5.109  24.474  32.383  0.00  0.00     0.000 OA
ATOM     13  C   UNL d   1       4.699  24.182  31.062  0.00  0.00     0.197 C 
ATOM     14  C   UNL d   1       4.977  25.347  30.135  0.00  0.00     0.182 C 
BRANCH  10  15
ATOM     15  O   UNL d   1       6.544  26.888  31.943  0.00  0.00    -0.390 OA
ATOM     16  H   UNL d   1       5.699  26.754  32.436  0.00  0.00     0.210 HD
ENDBRANCH  10  15
BRANCH  11  17
ATOM     17  O   UNL d   1       7.091  23.247  32.215  0.00  0.00    -0.390 OA
ATOM     18  H   UNL d   1       7.887  23.072  32.766  0.00  0.00     0.210 HD
ENDBRANCH  11  17
BRANCH  12  19
ATOM     19  P   UNL d   1       4.324  25.633  33.219  0.00  0.00     0.347 P 
ATOM     20  O   UNL d   1       3.762  26.603  32.251  0.00  0.00    -0.645 OA
BRANCH  19  21
ATOM     21  O   UNL d   1       3.149  24.833  33.971  0.00  0.00    -0.321 OA
ATOM     22  H   UNL d   1       2.943  25.013  34.911  0.00  0.00     0.220 HD
ENDBRANCH  19  21
BRANCH  19  23
ATOM     23  O   UNL d   1       5.205  26.186  34.413  0.00  0.00    -0.321 OA
ATOM     24  H   UNL d   1       6.151  26.341  34.160  0.00  0.00     0.220 HD
ENDBRANCH  19  23
ENDBRANCH  12  19
BRANCH  13  25
ATOM     25  O   UNL d   1       3.414  23.788  30.644  0.00  0.00    -0.286 OA
BRANCH  25  26
ATOM     26  P   UNL d   1       3.429  22.058  30.641  0.00  0.00     0.391 P 
ATOM     27  O   UNL d   1       3.442  20.509  30.638  0.00  0.00    -0.632 OA
BRANCH  26  28
ATOM     28  O   UNL d   1       2.822  22.221  29.140  0.00  0.00    -0.307 OA
ATOM     29  H   UNL d   1       1.861  22.340  29.053  0.00  0.00     0.222 HD
ENDBRANCH  26  28
BRANCH  26  30
ATOM     30  O   UNL d   1       4.982  22.231  30.201  0.00  0.00    -0.307 OA
ATOM     31  H   UNL d   1       5.568  21.449  30.220  0.00  0.00     0.222 HD
ENDBRANCH  26  30
ENDBRANCH  25  26
ENDBRANCH  13  25
BRANCH  14  32
ATOM     32  O   UNL d   1       4.280  25.078  28.908  0.00  0.00    -0.390 OA
ATOM     33  H   UNL d   1       4.563  25.726  28.218  0.00  0.00     0.210 HD
ENDBRANCH  14  32
ENDBRANCH   8   9
ENDBRANCH   4   8
ENDBRANCH   3   4
ENDBRANCH   2   3
ENDBRANCH   1   2
BRANCH   1  34
ATOM     34  O   UNL d   1       6.857  23.688  22.889  0.00  0.00    -0.312 OA
BRANCH  34  35
ATOM     35  C   UNL d   1       5.891  23.342  21.984  0.00  0.00     0.259 C 
ATOM     36  O   UNL d   1       4.688  23.418  22.179  0.00  0.00    -0.265 OA
BRANCH  35  37
ATOM     37  C   UNL d   1       6.501  22.931  20.670  0.00  0.00     0.111 C 
BRANCH  37  38
ATOM     38  C   UNL d   1       5.588  22.002  19.887  0.00  0.00     0.010 C 
BRANCH  38  39
ATOM     39  C   UNL d   1       6.235  20.635  19.685  0.00  0.00     0.000 C 
BRANCH  39  40
ATOM     40  C   UNL d   1       7.564  20.593  20.423  0.00  0.00     0.000 C 
BRANCH  40  41
ATOM     41  C   UNL d   1       8.368  19.343  20.086  0.00  0.00     0.000 C 
BRANCH  41  42
ATOM     42  C   UNL d   1       7.870  18.688  18.795  0.00  0.00     0.004 C 
BRANCH  42  43
ATOM     43  C   UNL d   1       8.767  17.560  18.281  0.00  0.00     0.027 C 
BRANCH  43  44
ATOM     44  C   UNL d   1       9.645  16.992  19.364  0.00  0.00    -0.031 C 
ATOM     45  C   UNL d   1      10.978  17.113  19.395  0.00  0.00    -0.031 C 
BRANCH  45  46
ATOM     46  C   UNL d   1      11.726  17.874  18.352  0.00  0.00     0.027 C 
BRANCH  46  47
ATOM     47  C   UNL d   1      12.399  16.972  17.338  0.00  0.00     0.004 C 
BRANCH  47  48
ATOM     48  C   UNL d   1      12.367  17.657  15.979  0.00  0.00     0.000 C 
BRANCH  48  49
ATOM     49  C   UNL d   1      11.243  18.672  15.931  0.00  0.00     0.000 C 
BRANCH  49  50
ATOM     50  C   UNL d   1      11.726  19.967  15.296  0.00  0.00     0.000 C 
BRANCH  50  51
ATOM     51  C   UNL d   1      11.358  21.147  16.184  0.00  0.00    -0.000 C 
BRANCH  51  52
ATOM     52  C   UNL d   1      10.143  20.824  17.044  0.00  0.00    -0.005 C 
ATOM     53  C   UNL d   1       9.619  22.079  17.720  0.00  0.00     0.005 C 
ENDBRANCH  51  52
ENDBRANCH  50  51
ENDBRANCH  49  50
ENDBRANCH  48  49
ENDBRANCH  47  48
ENDBRANCH  46  47
ENDBRANCH  45  46
ENDBRANCH  43  44
ENDBRANCH  42  43
ENDBRANCH  41  42
ENDBRANCH  40  41
ENDBRANCH  39  40
ENDBRANCH  38  39
ENDBRANCH  37  38
ENDBRANCH  35  37
ENDBRANCH  34  35
ENDBRANCH   1  34
BRANCH   1  54
ATOM     54  C   UNL d   1       7.216  25.845  23.958  0.00  0.00     0.213 C 
BRANCH  54  55
ATOM     55  O   UNL d   1       7.105  26.552  22.715  0.00  0.00    -0.319 OA
BRANCH  55  56
ATOM     56  C   UNL d   1       7.065  27.909  22.723  0.00  0.00     0.258 C 
ATOM     57  O   UNL d   1       8.043  28.653  22.703  0.00  0.00    -0.265 OA
BRANCH  56  58
ATOM     58  C   UNL d   1       5.630  28.389  22.641  0.00  0.00     0.111 C 
BRANCH  58  59
ATOM     59  C   UNL d   1       5.210  29.178  23.879  0.00  0.00     0.010 C 
BRANCH  59  60
ATOM     60  C   UNL d   1       5.342  30.689  23.711  0.00  0.00     0.000 C 
BRANCH  60  61
ATOM     61  C   UNL d   1       5.943  31.286  24.982  0.00  0.00     0.000 C 
BRANCH  61  62
ATOM     62  C   UNL d   1       6.801  32.505  24.678  0.00  0.00     0.000 C 
BRANCH  62  63
ATOM     63  C   UNL d   1       7.148  33.252  25.962  0.00  0.00     0.000 C 
BRANCH  63  64
ATOM     64  C   UNL d   1       8.468  32.740  26.523  0.00  0.00     0.000 C 
BRANCH  64  65
ATOM     65  C   UNL d   1       8.360  32.480  28.018  0.00  0.00     0.000 C 
BRANCH  65  66
ATOM     66  C   UNL d   1       9.708  32.694  28.693  0.00  0.00     0.000 C 
BRANCH  66  67
ATOM     67  C   UNL d   1      10.839  32.398  27.718  0.00  0.00     0.000 C 
BRANCH  67  68
ATOM     68  C   UNL d   1      12.020  33.323  27.968  0.00  0.00     0.000 C 
BRANCH  68  69
ATOM     69  C   UNL d   1      11.777  34.684  27.327  0.00  0.00     0.000 C 
BRANCH  69  70
ATOM     70  C   UNL d   1      12.928  35.632  27.638  0.00  0.00    -0.000 C 
BRANCH  70  71
ATOM     71  C   UNL d   1      12.534  36.634  28.718  0.00  0.00    -0.005 C 
ATOM     72  C   UNL d   1      11.128  37.156  28.484  0.00  0.00     0.005 C 
ENDBRANCH  70  71
ENDBRANCH  69  70
ENDBRANCH  68  69
ENDBRANCH  67  68
ENDBRANCH  66  67
ENDBRANCH  65  66
ENDBRANCH  64  65
ENDBRANCH  63  64
ENDBRANCH  62  63
ENDBRANCH  61  62
ENDBRANCH  60  61
ENDBRANCH  59  60
ENDBRANCH  58  59
ENDBRANCH  56  58
ENDBRANCH  55  56
ENDBRANCH  54  55
ENDBRANCH   1  54
TORSDOF 50
ENDMDL
MODEL 5
REMARK VINA RESULT:      -6.3      2.660      7.559
REMARK WARNING: 32 MAX_TORS EXCEEDED!!!
REMARK  50 active torsions:
REMARK  status: ('A' for Active; 'I' for Inactive)
REMARK    1  A    between atoms: C_3  and  C_2 
REMARK    2  A    between atoms: C_4  and  C_3 
REMARK    3  A    between atoms: C_5  and  C_4 
REMARK    4  A    between atoms: C_6  and  C_5 
REMARK    5  A    between atoms: C_7  and  C_6 
REMARK    6  A    between atoms: C_8  and  C_7 
REMARK    7  A    between atoms: C_9  and  C_8 
REMARK    8  A    between atoms: C_10  and  C_9 
REMARK    9  A    between atoms: C_11  and  C_10 
REMARK   10  A    between atoms: C_12  and  C_11 
REMARK   11  A    between atoms: C_13  and  C_12 
REMARK   12  A    between atoms: C_14  and  C_13 
REMARK   13  A    between atoms: C_15  and  C_14 
REMARK   14  A    between atoms: C_16  and  C_15 
REMARK   15  A    between atoms: O_17  and  C_16 
REMARK   16  A    between atoms: C_19  and  O_17 
REMARK   17  A    between atoms: C_20  and  C_19 
REMARK   18  A    between atoms: C_20  and  C_22 
REMARK   19  A    between atoms: C_20  and  O_21 
REMARK   20  A    between atoms: O_21  and  C_23 
REMARK   21  A    between atoms: C_22  and  O_24 
REMARK   22  A    between atoms: C_23  and  C_25 
REMARK   23  A    between atoms: O_24  and  P_27 
REMARK   24  A    between atoms: C_25  and  C_28 
REMARK   25  A    between atoms: P_27  and  O_31 
REMARK   26  A    between atoms: P_27  and  O_29 
REMARK   27  A    between atoms: C_28  and  C_32 
REMARK   28  A    between atoms: O_29  and  C_33 
REMARK   29  A    between atoms: C_32  and  C_34 
REMARK   30  A    between atoms: C_34  and  C_37 
REMARK   31  A    between atoms: C_35  and  O_38 
REMARK   32  A    between atoms: C_36  and  O_40 
REMARK   33  A    between atoms: C_37  and  C_42 
REMARK   34  A    between atoms: C_39  and  O_43 
REMARK   35  A    between atoms: C_41  and  O_45 
REMARK   36  A    between atoms: C_42  and  C_46 
REMARK   37  A    between atoms: O_44  and  P_47 
REMARK   38  A    between atoms: O_45  and  P_48 
REMARK   39  A    between atoms: C_46  and  C_49 
REMARK   40  A    between atoms: P_47  and  O_51 
REMARK   41  A    between atoms: P_47  and  O_52 
REMARK   42  A    between atoms: P_48  and  O_54 
REMARK   43  A    between atoms: P_48  and  O_55 
REMARK   44  A    between atoms: C_56  and  C_57 
REMARK   45  A    between atoms: C_57  and  C_58 
REMARK   46  A    between atoms: C_58  and  C_59 
REMARK   47  A    between atoms: C_59  and  C_60 
REMARK   48  A    between atoms: C_60  and  C_61 
REMARK   49  A    between atoms: C_61  and  C_62 
REMARK   50  A    between atoms: C_62  and  C_63 
ROOT
ATOM      1  C   UNL d   1      10.122  10.409  18.129  0.00  0.00     0.180 C 
ENDROOT
BRANCH   1   2
ATOM      2  C   UNL d   1      10.517   9.413  17.019  0.00  0.00     0.215 C 
BRANCH   2   3
ATOM      3  O   UNL d   1       9.395   8.798  16.368  0.00  0.00    -0.294 OA
BRANCH   3   4
ATOM      4  P   UNL d   1       9.509   7.080  16.199  0.00  0.00     0.393 P 
ATOM      5  O   UNL d   1      10.373   7.112  17.475  0.00  0.00    -0.631 OA
BRANCH   4   6
ATOM      6  O   UNL d   1      10.768   7.180  15.168  0.00  0.00    -0.307 OA
ATOM      7  H   UNL d   1      11.301   6.367  15.330  0.00  0.00     0.222 HD
ENDBRANCH   4   6
BRANCH   4   8
ATOM      8  O   UNL d   1       9.623   5.361  16.030  0.00  0.00    -0.286 OA
BRANCH   8   9
ATOM      9  C   UNL d   1       9.099   5.056  14.702  0.00  0.00     0.196 C 
ATOM     10  C   UNL d   1       7.728   4.379  14.733  0.00  0.00     0.181 C 
ATOM     11  C   UNL d   1       7.795   3.054  15.536  0.00  0.00     0.180 C 
ATOM     12  O   UNL d   1       8.840   2.262  14.990  0.00  0.00     0.000 OA
ATOM     13  C   UNL d   1      10.082   2.935  15.038  0.00  0.00     0.197 C 
ATOM     14  C   UNL d   1      10.113   4.092  14.060  0.00  0.00     0.182 C 
BRANCH  10  15
ATOM     15  O   UNL d   1       7.350   4.067  13.377  0.00  0.00    -0.390 OA
ATOM     16  H   UNL d   1       7.898   4.608  12.760  0.00  0.00     0.210 HD
ENDBRANCH  10  15
BRANCH  11  17
ATOM     17  O   UNL d   1       8.023   3.291  16.924  0.00  0.00    -0.390 OA
ATOM     18  H   UNL d   1       8.835   3.826  17.076  0.00  0.00     0.210 HD
ENDBRANCH  11  17
BRANCH  12  19
ATOM     19  P   UNL d   1       8.433   1.442  13.642  0.00  0.00     0.347 P 
ATOM     20  O   UNL d   1       9.122   2.071  12.491  0.00  0.00    -0.645 OA
BRANCH  19  21
ATOM     21  O   UNL d   1       9.001  -0.038  13.907  0.00  0.00    -0.321 OA
ATOM     22  H   UNL d   1       9.942  -0.252  13.741  0.00  0.00     0.220 HD
ENDBRANCH  19  21
BRANCH  19  23
ATOM     23  O   UNL d   1       6.868   1.217  13.549  0.00  0.00    -0.321 OA
ATOM     24  H   UNL d   1       6.500   0.720  14.324  0.00  0.00     0.220 HD
ENDBRANCH  19  23
ENDBRANCH  12  19
BRANCH  13  25
ATOM     25  O   UNL d   1      11.357   2.370  14.846  0.00  0.00    -0.286 OA
BRANCH  25  26
ATOM     26  P   UNL d   1      11.869   1.820  16.405  0.00  0.00     0.391 P 
ATOM     27  O   UNL d   1      12.328   1.329  17.800  0.00  0.00    -0.632 OA
BRANCH  26  28
ATOM     28  O   UNL d   1      10.889   2.996  16.958  0.00  0.00    -0.307 OA
ATOM     29  H   UNL d   1      11.306   3.782  17.351  0.00  0.00     0.222 HD
ENDBRANCH  26  28
BRANCH  26  30
ATOM     30  O   UNL d   1      10.696   0.713  16.223  0.00  0.00    -0.307 OA
ATOM     31  H   UNL d   1       9.869   0.813  16.734  0.00  0.00     0.222 HD
ENDBRANCH  26  30
ENDBRANCH  25  26
ENDBRANCH  13  25
BRANCH  14  32
ATOM     32  O   UNL d   1      11.479   4.525  13.971  0.00  0.00    -0.390 OA
ATOM     33  H   UNL d   1      11.742   4.967  14.815  0.00  0.00     0.210 HD
ENDBRANCH  14  32
ENDBRANCH   8   9
ENDBRANCH   4   8
ENDBRANCH   3   4
ENDBRANCH   2   3
ENDBRANCH   1   2
BRANCH   1  34
ATOM     34  O   UNL d   1       8.755  10.829  17.948  0.00  0.00    -0.312 OA
BRANCH  34  35
ATOM     35  C   UNL d   1       8.141  11.333  19.061  0.00  0.00     0.259 C 
ATOM     36  O   UNL d   1       8.181  10.829  20.173  0.00  0.00    -0.265 OA
BRANCH  35  37
ATOM     37  C   UNL d   1       7.471  12.648  18.763  0.00  0.00     0.111 C 
BRANCH  37  38
ATOM     38  C   UNL d   1       6.214  12.846  19.594  0.00  0.00     0.010 C 
BRANCH  38  39
ATOM     39  C   UNL d   1       5.073  13.397  18.745  0.00  0.00     0.000 C 
BRANCH  39  40
ATOM     40  C   UNL d   1       5.648  14.169  17.568  0.00  0.00     0.000 C 
BRANCH  40  41
ATOM     41  C   UNL d   1       4.613  14.403  16.475  0.00  0.00     0.000 C 
BRANCH  41  42
ATOM     42  C   UNL d   1       3.187  14.298  17.021  0.00  0.00     0.004 C 
BRANCH  42  43
ATOM     43  C   UNL d   1       2.309  13.284  16.284  0.00  0.00     0.027 C 
BRANCH  43  44
ATOM     44  C   UNL d   1       3.123  12.231  15.581  0.00  0.00    -0.031 C 
ATOM     45  C   UNL d   1       2.828  10.925  15.581  0.00  0.00    -0.031 C 
BRANCH  45  46
ATOM     46  C   UNL d   1       1.613  10.390  16.262  0.00  0.00     0.027 C 
BRANCH  46  47
ATOM     47  C   UNL d   1       1.944   9.382  17.344  0.00  0.00     0.004 C 
BRANCH  47  48
ATOM     48  C   UNL d   1       1.566   7.994  16.848  0.00  0.00     0.000 C 
BRANCH  48  49
ATOM     49  C   UNL d   1       2.646   7.452  15.932  0.00  0.00     0.000 C 
BRANCH  49  50
ATOM     50  C   UNL d   1       3.674   6.667  16.733  0.00  0.00     0.000 C 
BRANCH  50  51
ATOM     51  C   UNL d   1       5.063   7.236  16.489  0.00  0.00    -0.000 C 
BRANCH  51  52
ATOM     52  C   UNL d   1       5.504   8.117  17.651  0.00  0.00    -0.005 C 
ATOM     53  C   UNL d   1       5.662   9.558  17.200  0.00  0.00     0.005 C 
ENDBRANCH  51  52
ENDBRANCH  50  51
ENDBRANCH  49  50
ENDBRANCH  48  49
ENDBRANCH  47  48
ENDBRANCH  46  47
ENDBRANCH  45  46
ENDBRANCH  43  44
ENDBRANCH  42  43
ENDBRANCH  41  42
ENDBRANCH  40  41
ENDBRANCH  39  40
ENDBRANCH  38  39
ENDBRANCH  37  38
ENDBRANCH  35  37
ENDBRANCH  34  35
ENDBRANCH   1  34
BRANCH   1  54
ATOM     54  C   UNL d   1      11.052  11.627  18.064  0.00  0.00     0.213 C 
BRANCH  54  55
ATOM     55  O   UNL d   1      12.176  11.424  17.198  0.00  0.00    -0.319 OA
BRANCH  55  56
ATOM     56  C   UNL d   1      12.539  12.409  16.337  0.00  0.00     0.258 C 
ATOM     57  O   UNL d   1      12.332  12.410  15.126  0.00  0.00    -0.265 OA
BRANCH  56  58
ATOM     58  C   UNL d   1      13.140  13.574  17.098  0.00  0.00     0.111 C 
BRANCH  58  59
ATOM     59  C   UNL d   1      13.913  14.525  16.188  0.00  0.00     0.010 C 
BRANCH  59  60
ATOM     60  C   UNL d   1      13.878  15.977  16.657  0.00  0.00     0.000 C 
BRANCH  60  61
ATOM     61  C   UNL d   1      13.184  16.049  18.016  0.00  0.00     0.000 C 
BRANCH  61  62
ATOM     62  C   UNL d   1      12.131  17.147  18.051  0.00  0.00     0.000 C 
BRANCH  62  63
ATOM     63  C   UNL d   1      11.031  16.868  17.032  0.00  0.00     0.000 C 
BRANCH  63  64
ATOM     64  C   UNL d   1      10.229  18.137  16.771  0.00  0.00     0.000 C 
BRANCH  64  65
ATOM     65  C   UNL d   1      11.058  19.376  17.075  0.00  0.00     0.000 C 
BRANCH  65  66
ATOM     66  C   UNL d   1      10.171  20.487  17.621  0.00  0.00     0.000 C 
BRANCH  66  67
ATOM     67  C   UNL d   1       8.713  20.053  17.606  0.00  0.00     0.000 C 
BRANCH  67  68
ATOM     68  C   UNL d   1       8.043  20.377  18.933  0.00  0.00     0.000 C 
BRANCH  68  69
ATOM     69  C   UNL d   1       7.744  19.098  19.707  0.00  0.00     0.000 C 
BRANCH  69  70
ATOM     70  C   UNL d   1       8.973  18.649  20.487  0.00  0.00    -0.000 C 
BRANCH  70  71
ATOM     71  C   UNL d   1       9.109  17.130  20.465  0.00  0.00    -0.005 C 
ATOM     72  C   UNL d   1       8.226  16.524  19.389  0.00  0.00     0.005 C 
ENDBRANCH  70  71
ENDBRANCH  69  70
ENDBRANCH  68  69
ENDBRANCH  67  68
ENDBRANCH  66  67
ENDBRANCH  65  66
ENDBRANCH  64  65
ENDBRANCH  63  64
ENDBRANCH  62  63
ENDBRANCH  61  62
ENDBRANCH  60  61
ENDBRANCH  59  60
ENDBRANCH  58  59
ENDBRANCH  56  58
ENDBRANCH  55  56
ENDBRANCH  54  55
ENDBRANCH   1  54
TORSDOF 50
ENDMDL
MODEL 6
REMARK VINA RESULT:      -6.3      2.042      4.643
REMARK WARNING: 32 MAX_TORS EXCEEDED!!!
REMARK  50 active torsions:
REMARK  status: ('A' for Active; 'I' for Inactive)
REMARK    1  A    between atoms: C_3  and  C_2 
REMARK    2  A    between atoms: C_4  and  C_3 
REMARK    3  A    between atoms: C_5  and  C_4 
REMARK    4  A    between atoms: C_6  and  C_5 
REMARK    5  A    between atoms: C_7  and  C_6 
REMARK    6  A    between atoms: C_8  and  C_7 
REMARK    7  A    between atoms: C_9  and  C_8 
REMARK    8  A    between atoms: C_10  and  C_9 
REMARK    9  A    between atoms: C_11  and  C_10 
REMARK   10  A    between atoms: C_12  and  C_11 
REMARK   11  A    between atoms: C_13  and  C_12 
REMARK   12  A    between atoms: C_14  and  C_13 
REMARK   13  A    between atoms: C_15  and  C_14 
REMARK   14  A    between atoms: C_16  and  C_15 
REMARK   15  A    between atoms: O_17  and  C_16 
REMARK   16  A    between atoms: C_19  and  O_17 
REMARK   17  A    between atoms: C_20  and  C_19 
REMARK   18  A    between atoms: C_20  and  C_22 
REMARK   19  A    between atoms: C_20  and  O_21 
REMARK   20  A    between atoms: O_21  and  C_23 
REMARK   21  A    between atoms: C_22  and  O_24 
REMARK   22  A    between atoms: C_23  and  C_25 
REMARK   23  A    between atoms: O_24  and  P_27 
REMARK   24  A    between atoms: C_25  and  C_28 
REMARK   25  A    between atoms: P_27  and  O_31 
REMARK   26  A    between atoms: P_27  and  O_29 
REMARK   27  A    between atoms: C_28  and  C_32 
REMARK   28  A    between atoms: O_29  and  C_33 
REMARK   29  A    between atoms: C_32  and  C_34 
REMARK   30  A    between atoms: C_34  and  C_37 
REMARK   31  A    between atoms: C_35  and  O_38 
REMARK   32  A    between atoms: C_36  and  O_40 
REMARK   33  A    between atoms: C_37  and  C_42 
REMARK   34  A    between atoms: C_39  and  O_43 
REMARK   35  A    between atoms: C_41  and  O_45 
REMARK   36  A    between atoms: C_42  and  C_46 
REMARK   37  A    between atoms: O_44  and  P_47 
REMARK   38  A    between atoms: O_45  and  P_48 
REMARK   39  A    between atoms: C_46  and  C_49 
REMARK   40  A    between atoms: P_47  and  O_51 
REMARK   41  A    between atoms: P_47  and  O_52 
REMARK   42  A    between atoms: P_48  and  O_54 
REMARK   43  A    between atoms: P_48  and  O_55 
REMARK   44  A    between atoms: C_56  and  C_57 
REMARK   45  A    between atoms: C_57  and  C_58 
REMARK   46  A    between atoms: C_58  and  C_59 
REMARK   47  A    between atoms: C_59  and  C_60 
REMARK   48  A    between atoms: C_60  and  C_61 
REMARK   49  A    between atoms: C_61  and  C_62 
REMARK   50  A    between atoms: C_62  and  C_63 
ROOT
ATOM      1  C   UNL d   1       7.032  10.357  18.345  0.00  0.00     0.180 C 
ENDROOT
BRANCH   1   2
ATOM      2  C   UNL d   1       7.970   9.772  17.269  0.00  0.00     0.215 C 
BRANCH   2   3
ATOM      3  O   UNL d   1       7.283   9.076  16.219  0.00  0.00    -0.294 OA
BRANCH   3   4
ATOM      4  P   UNL d   1       7.860   7.473  15.915  0.00  0.00     0.393 P 
ATOM      5  O   UNL d   1       9.145   8.143  15.390  0.00  0.00    -0.631 OA
BRANCH   4   6
ATOM      6  O   UNL d   1       7.130   7.396  14.460  0.00  0.00    -0.307 OA
ATOM      7  H   UNL d   1       6.367   6.783  14.583  0.00  0.00     0.222 HD
ENDBRANCH   4   6
BRANCH   4   8
ATOM      8  O   UNL d   1       8.437   5.870  15.611  0.00  0.00    -0.286 OA
BRANCH   8   9
ATOM      9  C   UNL d   1       9.891   5.978  15.538  0.00  0.00     0.196 C 
ATOM     10  C   UNL d   1      10.499   5.184  14.380  0.00  0.00     0.181 C 
ATOM     11  C   UNL d   1      10.138   3.682  14.503  0.00  0.00     0.180 C 
ATOM     12  O   UNL d   1      10.524   3.241  15.797  0.00  0.00     0.000 OA
ATOM     13  C   UNL d   1       9.888   3.990  16.813  0.00  0.00     0.197 C 
ATOM     14  C   UNL d   1      10.424   5.406  16.863  0.00  0.00     0.182 C 
BRANCH  10  15
ATOM     15  O   UNL d   1      11.933   5.311  14.452  0.00  0.00    -0.390 OA
ATOM     16  H   UNL d   1      12.340   4.419  14.339  0.00  0.00     0.210 HD
ENDBRANCH  10  15
BRANCH  11  17
ATOM     17  O   UNL d   1       8.744   3.457  14.297  0.00  0.00    -0.390 OA
ATOM     18  H   UNL d   1       8.468   3.684  13.380  0.00  0.00     0.210 HD
ENDBRANCH  11  17
BRANCH  12  19
ATOM     19  P   UNL d   1      12.108   2.888  15.946  0.00  0.00     0.347 P 
ATOM     20  O   UNL d   1      12.686   2.774  14.586  0.00  0.00    -0.645 OA
BRANCH  19  21
ATOM     21  O   UNL d   1      12.714   4.160  16.719  0.00  0.00    -0.321 OA
ATOM     22  H   UNL d   1      12.457   5.070  16.466  0.00  0.00     0.220 HD
ENDBRANCH  19  21
BRANCH  19  23
ATOM     23  O   UNL d   1      12.345   1.699  16.966  0.00  0.00    -0.321 OA
ATOM     24  H   UNL d   1      12.510   0.830  16.519  0.00  0.00     0.220 HD
ENDBRANCH  19  23
ENDBRANCH  12  19
BRANCH  13  25
ATOM     25  O   UNL d   1       9.816   3.667  18.181  0.00  0.00    -0.286 OA
BRANCH  25  26
ATOM     26  P   UNL d   1       8.437   2.635  18.351  0.00  0.00     0.391 P 
ATOM     27  O   UNL d   1       7.203   1.713  18.502  0.00  0.00    -0.632 OA
BRANCH  26  28
ATOM     28  O   UNL d   1       9.477   1.454  17.939  0.00  0.00    -0.307 OA
ATOM     29  H   UNL d   1      10.187   1.677  17.313  0.00  0.00     0.222 HD
ENDBRANCH  26  28
BRANCH  26  30
ATOM     30  O   UNL d   1       8.825   2.643  19.927  0.00  0.00    -0.307 OA
ATOM     31  H   UNL d   1       8.787   3.487  20.419  0.00  0.00     0.222 HD
ENDBRANCH  26  30
ENDBRANCH  25  26
ENDBRANCH  13  25
BRANCH  14  32
ATOM     32  O   UNL d   1       9.941   5.991  18.083  0.00  0.00    -0.390 OA
ATOM     33  H   UNL d   1       9.580   6.892  17.896  0.00  0.00     0.210 HD
ENDBRANCH  14  32
ENDBRANCH   8   9
ENDBRANCH   4   8
ENDBRANCH   3   4
ENDBRANCH   2   3
ENDBRANCH   1   2
BRANCH   1  34
ATOM     34  O   UNL d   1       7.702  11.415  19.059  0.00  0.00    -0.312 OA
BRANCH  34  35
ATOM     35  C   UNL d   1       6.885  12.357  19.619  0.00  0.00     0.259 C 
ATOM     36  O   UNL d   1       6.553  12.389  20.794  0.00  0.00    -0.265 OA
BRANCH  35  37
ATOM     37  C   UNL d   1       6.506  13.414  18.615  0.00  0.00     0.111 C 
BRANCH  37  38
ATOM     38  C   UNL d   1       7.268  14.710  18.840  0.00  0.00     0.010 C 
BRANCH  38  39
ATOM     39  C   UNL d   1       8.526  14.766  17.979  0.00  0.00     0.000 C 
BRANCH  39  40
ATOM     40  C   UNL d   1       8.645  16.145  17.350  0.00  0.00     0.000 C 
BRANCH  40  41
ATOM     41  C   UNL d   1       8.559  17.258  18.388  0.00  0.00     0.000 C 
BRANCH  41  42
ATOM     42  C   UNL d   1       8.730  18.636  17.746  0.00  0.00     0.004 C 
BRANCH  42  43
ATOM     43  C   UNL d   1       9.033  19.757  18.744  0.00  0.00     0.027 C 
BRANCH  43  44
ATOM     44  C   UNL d   1       8.314  19.563  20.052  0.00  0.00    -0.031 C 
ATOM     45  C   UNL d   1       7.107  20.069  20.332  0.00  0.00    -0.031 C 
BRANCH  45  46
ATOM     46  C   UNL d   1       6.329  20.857  19.330  0.00  0.00     0.027 C 
BRANCH  46  47
ATOM     47  C   UNL d   1       5.257  21.717  19.966  0.00  0.00     0.004 C 
BRANCH  47  48
ATOM     48  C   UNL d   1       5.848  22.412  21.183  0.00  0.00     0.000 C 
BRANCH  48  49
ATOM     49  C   UNL d   1       6.830  23.483  20.749  0.00  0.00     0.000 C 
BRANCH  49  50
ATOM     50  C   UNL d   1       7.364  24.234  21.959  0.00  0.00     0.000 C 
BRANCH  50  51
ATOM     51  C   UNL d   1       6.374  24.132  23.109  0.00  0.00    -0.000 C 
BRANCH  51  52
ATOM     52  C   UNL d   1       5.723  25.480  23.390  0.00  0.00    -0.005 C 
ATOM     53  C   UNL d   1       6.537  26.604  22.775  0.00  0.00     0.005 C 
ENDBRANCH  51  52
ENDBRANCH  50  51
ENDBRANCH  49  50
ENDBRANCH  48  49
ENDBRANCH  47  48
ENDBRANCH  46  47
ENDBRANCH  45  46
ENDBRANCH  43  44
ENDBRANCH  42  43
ENDBRANCH  41  42
ENDBRANCH  40  41
ENDBRANCH  39  40
ENDBRANCH  38  39
ENDBRANCH  37  38
ENDBRANCH  35  37
ENDBRANCH  34  35
ENDBRANCH   1  34
BRANCH   1  54
ATOM     54  C   UNL d   1       6.634   9.243  19.322  0.00  0.00     0.213 C 
BRANCH  54  55
ATOM     55  O   UNL d   1       7.683   8.904  20.238  0.00  0.00    -0.319 OA
BRANCH  55  56
ATOM     56  C   UNL d   1       8.067   7.608  20.359  0.00  0.00     0.258 C 
ATOM     57  O   UNL d   1       7.605   6.663  19.724  0.00  0.00    -0.265 OA
BRANCH  56  58
ATOM     58  C   UNL d   1       9.240   7.498  21.313  0.00  0.00     0.111 C 
BRANCH  58  59
ATOM     59  C   UNL d   1       9.998   8.817  21.456  0.00  0.00     0.010 C 
BRANCH  59  60
ATOM     60  C   UNL d   1      11.282   8.872  20.633  0.00  0.00     0.000 C 
BRANCH  60  61
ATOM     61  C   UNL d   1      11.006   9.605  19.321  0.00  0.00     0.000 C 
BRANCH  61  62
ATOM     62  C   UNL d   1      11.229  11.103  19.458  0.00  0.00     0.000 C 
BRANCH  62  63
ATOM     63  C   UNL d   1      11.112  11.791  18.102  0.00  0.00     0.000 C 
BRANCH  63  64
ATOM     64  C   UNL d   1      12.098  11.175  17.118  0.00  0.00     0.000 C 
BRANCH  64  65
ATOM     65  C   UNL d   1      12.452  12.159  16.014  0.00  0.00     0.000 C 
BRANCH  65  66
ATOM     66  C   UNL d   1      12.497  13.579  16.561  0.00  0.00     0.000 C 
BRANCH  66  67
ATOM     67  C   UNL d   1      13.937  14.065  16.647  0.00  0.00     0.000 C 
BRANCH  67  68
ATOM     68  C   UNL d   1      13.987  15.581  16.760  0.00  0.00     0.000 C 
BRANCH  68  69
ATOM     69  C   UNL d   1      13.073  16.063  17.880  0.00  0.00     0.000 C 
BRANCH  69  70
ATOM     70  C   UNL d   1      12.181  17.197  17.390  0.00  0.00    -0.000 C 
BRANCH  70  71
ATOM     71  C   UNL d   1      12.436  17.492  15.915  0.00  0.00    -0.005 C 
ATOM     72  C   UNL d   1      11.538  18.614  15.426  0.00  0.00     0.005 C 
ENDBRANCH  70  71
ENDBRANCH  69  70
ENDBRANCH  68  69
ENDBRANCH  67  68
ENDBRANCH  66  67
ENDBRANCH  65  66
ENDBRANCH  64  65
ENDBRANCH  63  64
ENDBRANCH  62  63
ENDBRANCH  61  62
ENDBRANCH  60  61
ENDBRANCH  59  60
ENDBRANCH  58  59
ENDBRANCH  56  58
ENDBRANCH  55  56
ENDBRANCH  54  55
ENDBRANCH   1  54
TORSDOF 50
ENDMDL
MODEL 7
REMARK VINA RESULT:      -6.3     13.460     19.990
REMARK WARNING: 32 MAX_TORS EXCEEDED!!!
REMARK  50 active torsions:
REMARK  status: ('A' for Active; 'I' for Inactive)
REMARK    1  A    between atoms: C_3  and  C_2 
REMARK    2  A    between atoms: C_4  and  C_3 
REMARK    3  A    between atoms: C_5  and  C_4 
REMARK    4  A    between atoms: C_6  and  C_5 
REMARK    5  A    between atoms: C_7  and  C_6 
REMARK    6  A    between atoms: C_8  and  C_7 
REMARK    7  A    between atoms: C_9  and  C_8 
REMARK    8  A    between atoms: C_10  and  C_9 
REMARK    9  A    between atoms: C_11  and  C_10 
REMARK   10  A    between atoms: C_12  and  C_11 
REMARK   11  A    between atoms: C_13  and  C_12 
REMARK   12  A    between atoms: C_14  and  C_13 
REMARK   13  A    between atoms: C_15  and  C_14 
REMARK   14  A    between atoms: C_16  and  C_15 
REMARK   15  A    between atoms: O_17  and  C_16 
REMARK   16  A    between atoms: C_19  and  O_17 
REMARK   17  A    between atoms: C_20  and  C_19 
REMARK   18  A    between atoms: C_20  and  C_22 
REMARK   19  A    between atoms: C_20  and  O_21 
REMARK   20  A    between atoms: O_21  and  C_23 
REMARK   21  A    between atoms: C_22  and  O_24 
REMARK   22  A    between atoms: C_23  and  C_25 
REMARK   23  A    between atoms: O_24  and  P_27 
REMARK   24  A    between atoms: C_25  and  C_28 
REMARK   25  A    between atoms: P_27  and  O_31 
REMARK   26  A    between atoms: P_27  and  O_29 
REMARK   27  A    between atoms: C_28  and  C_32 
REMARK   28  A    between atoms: O_29  and  C_33 
REMARK   29  A    between atoms: C_32  and  C_34 
REMARK   30  A    between atoms: C_34  and  C_37 
REMARK   31  A    between atoms: C_35  and  O_38 
REMARK   32  A    between atoms: C_36  and  O_40 
REMARK   33  A    between atoms: C_37  and  C_42 
REMARK   34  A    between atoms: C_39  and  O_43 
REMARK   35  A    between atoms: C_41  and  O_45 
REMARK   36  A    between atoms: C_42  and  C_46 
REMARK   37  A    between atoms: O_44  and  P_47 
REMARK   38  A    between atoms: O_45  and  P_48 
REMARK   39  A    between atoms: C_46  and  C_49 
REMARK   40  A    between atoms: P_47  and  O_51 
REMARK   41  A    between atoms: P_47  and  O_52 
REMARK   42  A    between atoms: P_48  and  O_54 
REMARK   43  A    between atoms: P_48  and  O_55 
REMARK   44  A    between atoms: C_56  and  C_57 
REMARK   45  A    between atoms: C_57  and  C_58 
REMARK   46  A    between atoms: C_58  and  C_59 
REMARK   47  A    between atoms: C_59  and  C_60 
REMARK   48  A    between atoms: C_60  and  C_61 
REMARK   49  A    between atoms: C_61  and  C_62 
REMARK   50  A    between atoms: C_62  and  C_63 
ROOT
ATOM      1  C   UNL d   1       5.377  25.432  24.331  0.00  0.00     0.180 C 
ENDROOT
BRANCH   1   2
ATOM      2  C   UNL d   1       6.833  25.097  23.945  0.00  0.00     0.215 C 
BRANCH   2   3
ATOM      3  O   UNL d   1       7.485  24.208  24.863  0.00  0.00    -0.294 OA
BRANCH   3   4
ATOM      4  P   UNL d   1       6.685  24.026  26.387  0.00  0.00     0.393 P 
ATOM      5  O   UNL d   1       7.764  24.972  26.952  0.00  0.00    -0.631 OA
BRANCH   4   6
ATOM      6  O   UNL d   1       7.492  22.655  26.742  0.00  0.00    -0.307 OA
ATOM      7  H   UNL d   1       6.907  22.163  27.365  0.00  0.00     0.222 HD
ENDBRANCH   4   6
BRANCH   4   8
ATOM      8  O   UNL d   1       5.886  23.845  27.911  0.00  0.00    -0.286 OA
BRANCH   8   9
ATOM      9  C   UNL d   1       4.983  24.986  28.026  0.00  0.00     0.196 C 
ATOM     10  C   UNL d   1       5.315  25.904  29.203  0.00  0.00     0.181 C 
ATOM     11  C   UNL d   1       5.260  25.117  30.537  0.00  0.00     0.180 C 
ATOM     12  O   UNL d   1       3.995  24.476  30.618  0.00  0.00     0.000 OA
ATOM     13  C   UNL d   1       3.779  23.611  29.521  0.00  0.00     0.197 C 
ATOM     14  C   UNL d   1       3.579  24.394  28.240  0.00  0.00     0.182 C 
BRANCH  10  15
ATOM     15  O   UNL d   1       4.322  26.948  29.253  0.00  0.00    -0.390 OA
ATOM     16  H   UNL d   1       4.432  27.532  28.464  0.00  0.00     0.210 HD
ENDBRANCH  10  15
BRANCH  11  17
ATOM     17  O   UNL d   1       6.311  24.156  30.625  0.00  0.00    -0.390 OA
ATOM     18  H   UNL d   1       6.252  23.623  31.451  0.00  0.00     0.210 HD
ENDBRANCH  11  17
BRANCH  12  19
ATOM     19  P   UNL d   1       2.780  25.440  31.119  0.00  0.00     0.347 P 
ATOM     20  O   UNL d   1       1.887  25.697  29.965  0.00  0.00    -0.645 OA
BRANCH  19  21
ATOM     21  O   UNL d   1       2.029  24.561  32.236  0.00  0.00    -0.321 OA
ATOM     22  H   UNL d   1       2.208  23.602  32.323  0.00  0.00     0.220 HD
ENDBRANCH  19  21
BRANCH  19  23
ATOM     23  O   UNL d   1       3.323  26.680  31.941  0.00  0.00    -0.321 OA
ATOM     24  H   UNL d   1       4.272  26.891  31.746  0.00  0.00     0.220 HD
ENDBRANCH  19  23
ENDBRANCH  12  19
BRANCH  13  25
ATOM     25  O   UNL d   1       2.782  22.624  29.407  0.00  0.00    -0.286 OA
BRANCH  25  26
ATOM     26  P   UNL d   1       3.191  21.405  30.566  0.00  0.00     0.391 P 
ATOM     27  O   UNL d   1       3.556  20.314  31.602  0.00  0.00    -0.632 OA
BRANCH  26  28
ATOM     28  O   UNL d   1       2.888  20.375  29.342  0.00  0.00    -0.307 OA
ATOM     29  H   UNL d   1       3.625  20.153  28.748  0.00  0.00     0.222 HD
ENDBRANCH  26  28
BRANCH  26  30
ATOM     30  O   UNL d   1       4.720  21.725  30.125  0.00  0.00    -0.307 OA
ATOM     31  H   UNL d   1       5.180  22.484  30.535  0.00  0.00     0.222 HD
ENDBRANCH  26  30
ENDBRANCH  25  26
ENDBRANCH  13  25
BRANCH  14  32
ATOM     32  O   UNL d   1       3.090  23.468  27.258  0.00  0.00    -0.390 OA
ATOM     33  H   UNL d   1       2.844  22.618  27.699  0.00  0.00     0.210 HD
ENDBRANCH  14  32
ENDBRANCH   8   9
ENDBRANCH   4   8
ENDBRANCH   3   4
ENDBRANCH   2   3
ENDBRANCH   1   2
BRANCH   1  34
ATOM     34  O   UNL d   1       4.471  24.865  23.364  0.00  0.00    -0.312 OA
BRANCH  34  35
ATOM     35  C   UNL d   1       4.324  23.507  23.420  0.00  0.00     0.259 C 
ATOM     36  O   UNL d   1       3.988  22.878  24.411  0.00  0.00    -0.265 OA
BRANCH  35  37
ATOM     37  C   UNL d   1       4.549  22.880  22.069  0.00  0.00     0.111 C 
BRANCH  37  38
ATOM     38  C   UNL d   1       3.599  21.721  21.816  0.00  0.00     0.010 C 
BRANCH  38  39
ATOM     39  C   UNL d   1       3.811  21.129  20.426  0.00  0.00     0.000 C 
BRANCH  39  40
ATOM     40  C   UNL d   1       5.080  21.707  19.821  0.00  0.00     0.000 C 
BRANCH  40  41
ATOM     41  C   UNL d   1       6.113  20.628  19.516  0.00  0.00     0.000 C 
BRANCH  41  42
ATOM     42  C   UNL d   1       7.291  20.690  20.489  0.00  0.00     0.004 C 
BRANCH  42  43
ATOM     43  C   UNL d   1       8.605  20.153  19.916  0.00  0.00     0.027 C 
BRANCH  43  44
ATOM     44  C   UNL d   1       8.992  20.846  18.637  0.00  0.00    -0.031 C 
ATOM     45  C   UNL d   1       9.363  20.212  17.518  0.00  0.00    -0.031 C 
BRANCH  45  46
ATOM     46  C   UNL d   1       9.387  18.722  17.425  0.00  0.00     0.027 C 
BRANCH  46  47
ATOM     47  C   UNL d   1      10.787  18.168  17.261  0.00  0.00     0.004 C 
BRANCH  47  48
ATOM     48  C   UNL d   1      11.343  17.834  18.637  0.00  0.00     0.000 C 
BRANCH  48  49
ATOM     49  C   UNL d   1      12.652  17.080  18.504  0.00  0.00     0.000 C 
BRANCH  49  50
ATOM     50  C   UNL d   1      12.877  16.660  17.060  0.00  0.00     0.000 C 
BRANCH  50  51
ATOM     51  C   UNL d   1      13.668  15.361  17.016  0.00  0.00    -0.000 C 
BRANCH  51  52
ATOM     52  C   UNL d   1      13.464  14.643  15.689  0.00  0.00    -0.005 C 
ATOM     53  C   UNL d   1      12.850  15.579  14.663  0.00  0.00     0.005 C 
ENDBRANCH  51  52
ENDBRANCH  50  51
ENDBRANCH  49  50
ENDBRANCH  48  49
ENDBRANCH  47  48
ENDBRANCH  46  47
ENDBRANCH  45  46
ENDBRANCH  43  44
ENDBRANCH  42  43
ENDBRANCH  41  42
ENDBRANCH  40  41
ENDBRANCH  39  40
ENDBRANCH  38  39
ENDBRANCH  37  38
ENDBRANCH  35  37
ENDBRANCH  34  35
ENDBRANCH   1  34
BRANCH   1  54
ATOM     54  C   UNL d   1       5.206  26.956  24.372  0.00  0.00     0.213 C 
BRANCH  54  55
ATOM     55  O   UNL d   1       4.749  27.498  23.126  0.00  0.00    -0.319 OA
BRANCH  55  56
ATOM     56  C   UNL d   1       4.086  28.682  23.120  0.00  0.00     0.258 C 
ATOM     57  O   UNL d   1       2.927  28.854  23.492  0.00  0.00    -0.265 OA
BRANCH  56  58
ATOM     58  C   UNL d   1       5.016  29.800  22.694  0.00  0.00     0.111 C 
BRANCH  58  59
ATOM     59  C   UNL d   1       5.446  30.676  23.869  0.00  0.00     0.010 C 
BRANCH  59  60
ATOM     60  C   UNL d   1       6.743  31.440  23.615  0.00  0.00     0.000 C 
BRANCH  60  61
ATOM     61  C   UNL d   1       6.955  32.457  24.735  0.00  0.00     0.000 C 
BRANCH  61  62
ATOM     62  C   UNL d   1       5.672  32.712  25.511  0.00  0.00     0.000 C 
BRANCH  62  63
ATOM     63  C   UNL d   1       5.961  33.503  26.783  0.00  0.00     0.000 C 
BRANCH  63  64
ATOM     64  C   UNL d   1       6.139  32.552  27.959  0.00  0.00     0.000 C 
BRANCH  64  65
ATOM     65  C   UNL d   1       7.593  32.129  28.101  0.00  0.00     0.000 C 
BRANCH  65  66
ATOM     66  C   UNL d   1       8.476  33.341  28.369  0.00  0.00     0.000 C 
BRANCH  66  67
ATOM     67  C   UNL d   1       9.506  33.497  27.259  0.00  0.00     0.000 C 
BRANCH  67  68
ATOM     68  C   UNL d   1      10.730  32.638  27.538  0.00  0.00     0.000 C 
BRANCH  68  69
ATOM     69  C   UNL d   1      11.141  32.752  29.001  0.00  0.00     0.000 C 
BRANCH  69  70
ATOM     70  C   UNL d   1      12.572  33.262  29.115  0.00  0.00    -0.000 C 
BRANCH  70  71
ATOM     71  C   UNL d   1      12.993  33.993  27.844  0.00  0.00    -0.005 C 
ATOM     72  C   UNL d   1      14.076  35.014  28.142  0.00  0.00     0.005 C 
ENDBRANCH  70  71
ENDBRANCH  69  70
ENDBRANCH  68  69
ENDBRANCH  67  68
ENDBRANCH  66  67
ENDBRANCH  65  66
ENDBRANCH  64  65
ENDBRANCH  63  64
ENDBRANCH  62  63
ENDBRANCH  61  62
ENDBRANCH  60  61
ENDBRANCH  59  60
ENDBRANCH  58  59
ENDBRANCH  56  58
ENDBRANCH  55  56
ENDBRANCH  54  55
ENDBRANCH   1  54
TORSDOF 50
ENDMDL
MODEL 8
REMARK VINA RESULT:      -6.2      2.572      7.732
REMARK WARNING: 32 MAX_TORS EXCEEDED!!!
REMARK  50 active torsions:
REMARK  status: ('A' for Active; 'I' for Inactive)
REMARK    1  A    between atoms: C_3  and  C_2 
REMARK    2  A    between atoms: C_4  and  C_3 
REMARK    3  A    between atoms: C_5  and  C_4 
REMARK    4  A    between atoms: C_6  and  C_5 
REMARK    5  A    between atoms: C_7  and  C_6 
REMARK    6  A    between atoms: C_8  and  C_7 
REMARK    7  A    between atoms: C_9  and  C_8 
REMARK    8  A    between atoms: C_10  and  C_9 
REMARK    9  A    between atoms: C_11  and  C_10 
REMARK   10  A    between atoms: C_12  and  C_11 
REMARK   11  A    between atoms: C_13  and  C_12 
REMARK   12  A    between atoms: C_14  and  C_13 
REMARK   13  A    between atoms: C_15  and  C_14 
REMARK   14  A    between atoms: C_16  and  C_15 
REMARK   15  A    between atoms: O_17  and  C_16 
REMARK   16  A    between atoms: C_19  and  O_17 
REMARK   17  A    between atoms: C_20  and  C_19 
REMARK   18  A    between atoms: C_20  and  C_22 
REMARK   19  A    between atoms: C_20  and  O_21 
REMARK   20  A    between atoms: O_21  and  C_23 
REMARK   21  A    between atoms: C_22  and  O_24 
REMARK   22  A    between atoms: C_23  and  C_25 
REMARK   23  A    between atoms: O_24  and  P_27 
REMARK   24  A    between atoms: C_25  and  C_28 
REMARK   25  A    between atoms: P_27  and  O_31 
REMARK   26  A    between atoms: P_27  and  O_29 
REMARK   27  A    between atoms: C_28  and  C_32 
REMARK   28  A    between atoms: O_29  and  C_33 
REMARK   29  A    between atoms: C_32  and  C_34 
REMARK   30  A    between atoms: C_34  and  C_37 
REMARK   31  A    between atoms: C_35  and  O_38 
REMARK   32  A    between atoms: C_36  and  O_40 
REMARK   33  A    between atoms: C_37  and  C_42 
REMARK   34  A    between atoms: C_39  and  O_43 
REMARK   35  A    between atoms: C_41  and  O_45 
REMARK   36  A    between atoms: C_42  and  C_46 
REMARK   37  A    between atoms: O_44  and  P_47 
REMARK   38  A    between atoms: O_45  and  P_48 
REMARK   39  A    between atoms: C_46  and  C_49 
REMARK   40  A    between atoms: P_47  and  O_51 
REMARK   41  A    between atoms: P_47  and  O_52 
REMARK   42  A    between atoms: P_48  and  O_54 
REMARK   43  A    between atoms: P_48  and  O_55 
REMARK   44  A    between atoms: C_56  and  C_57 
REMARK   45  A    between atoms: C_57  and  C_58 
REMARK   46  A    between atoms: C_58  and  C_59 
REMARK   47  A    between atoms: C_59  and  C_60 
REMARK   48  A    between atoms: C_60  and  C_61 
REMARK   49  A    between atoms: C_61  and  C_62 
REMARK   50  A    between atoms: C_62  and  C_63 
ROOT
ATOM      1  C   UNL d   1       9.314  11.088  18.936  0.00  0.00     0.180 C 
ENDROOT
BRANCH   1   2
ATOM      2  C   UNL d   1       9.790   9.622  18.867  0.00  0.00     0.215 C 
BRANCH   2   3
ATOM      3  O   UNL d   1       8.960   8.782  18.050  0.00  0.00    -0.294 OA
BRANCH   3   4
ATOM      4  P   UNL d   1       9.711   7.316  17.522  0.00  0.00     0.393 P 
ATOM      5  O   UNL d   1      10.461   7.332  18.869  0.00  0.00    -0.631 OA
BRANCH   4   6
ATOM      6  O   UNL d   1      10.874   8.109  16.698  0.00  0.00    -0.307 OA
ATOM      7  H   UNL d   1      11.483   7.407  16.369  0.00  0.00     0.222 HD
ENDBRANCH   4   6
BRANCH   4   8
ATOM      8  O   UNL d   1      10.463   5.849  16.994  0.00  0.00    -0.286 OA
BRANCH   8   9
ATOM      9  C   UNL d   1       9.375   4.903  16.768  0.00  0.00     0.196 C 
ATOM     10  C   UNL d   1       9.504   3.622  17.594  0.00  0.00     0.181 C 
ATOM     11  C   UNL d   1      10.838   2.901  17.273  0.00  0.00     0.180 C 
ATOM     12  O   UNL d   1      10.908   2.713  15.866  0.00  0.00     0.000 OA
ATOM     13  C   UNL d   1      10.827   3.942  15.173  0.00  0.00     0.197 C 
ATOM     14  C   UNL d   1       9.438   4.535  15.275  0.00  0.00     0.182 C 
BRANCH  10  15
ATOM     15  O   UNL d   1       8.418   2.745  17.238  0.00  0.00    -0.390 OA
ATOM     16  H   UNL d   1       8.404   1.981  17.864  0.00  0.00     0.210 HD
ENDBRANCH  10  15
BRANCH  11  17
ATOM     17  O   UNL d   1      11.964   3.647  17.731  0.00  0.00    -0.390 OA
ATOM     18  H   UNL d   1      12.650   3.742  17.032  0.00  0.00     0.210 HD
ENDBRANCH  11  17
BRANCH  12  19
ATOM     19  P   UNL d   1      10.065   1.433  15.313  0.00  0.00     0.347 P 
ATOM     20  O   UNL d   1       8.842   1.938  14.644  0.00  0.00    -0.645 OA
BRANCH  19  21
ATOM     21  O   UNL d   1      11.057   0.751  14.248  0.00  0.00    -0.321 OA
ATOM     22  H   UNL d   1      11.814   0.207  14.546  0.00  0.00     0.220 HD
ENDBRANCH  19  21
BRANCH  19  23
ATOM     23  O   UNL d   1       9.907   0.317  16.425  0.00  0.00    -0.321 OA
ATOM     24  H   UNL d   1       9.433  -0.491  16.102  0.00  0.00     0.220 HD
ENDBRANCH  19  23
ENDBRANCH  12  19
BRANCH  13  25
ATOM     25  O   UNL d   1      11.133   4.168  13.818  0.00  0.00    -0.286 OA
BRANCH  25  26
ATOM     26  P   UNL d   1      12.812   4.584  13.775  0.00  0.00     0.391 P 
ATOM     27  O   UNL d   1      14.315   4.955  13.736  0.00  0.00    -0.632 OA
BRANCH  26  28
ATOM     28  O   UNL d   1      12.263   6.081  13.450  0.00  0.00    -0.307 OA
ATOM     29  H   UNL d   1      12.879   6.823  13.575  0.00  0.00     0.222 HD
ENDBRANCH  26  28
BRANCH  26  30
ATOM     30  O   UNL d   1      12.658   4.708  15.386  0.00  0.00    -0.307 OA
ATOM     31  H   UNL d   1      13.021   5.496  15.836  0.00  0.00     0.222 HD
ENDBRANCH  26  30
ENDBRANCH  25  26
ENDBRANCH  13  25
BRANCH  14  32
ATOM     32  O   UNL d   1       9.372   5.609  14.322  0.00  0.00    -0.390 OA
ATOM     33  H   UNL d   1      10.272   6.000  14.203  0.00  0.00     0.210 HD
ENDBRANCH  14  32
ENDBRANCH   8   9
ENDBRANCH   4   8
ENDBRANCH   3   4
ENDBRANCH   2   3
ENDBRANCH   1   2
BRANCH   1  34
ATOM     34  O   UNL d   1       7.933  11.174  18.532  0.00  0.00    -0.312 OA
BRANCH  34  35
ATOM     35  C   UNL d   1       7.123  11.903  19.357  0.00  0.00     0.259 C 
ATOM     36  O   UNL d   1       6.868  11.622  20.517  0.00  0.00    -0.265 OA
BRANCH  35  37
ATOM     37  C   UNL d   1       6.644  13.159  18.677  0.00  0.00     0.111 C 
BRANCH  37  38
ATOM     38  C   UNL d   1       5.131  13.188  18.537  0.00  0.00     0.010 C 
BRANCH  38  39
ATOM     39  C   UNL d   1       4.712  13.804  17.206  0.00  0.00     0.000 C 
BRANCH  39  40
ATOM     40  C   UNL d   1       3.197  13.916  17.158  0.00  0.00     0.000 C 
BRANCH  40  41
ATOM     41  C   UNL d   1       2.575  12.888  16.220  0.00  0.00     0.000 C 
BRANCH  41  42
ATOM     42  C   UNL d   1       3.642  12.161  15.400  0.00  0.00     0.004 C 
BRANCH  42  43
ATOM     43  C   UNL d   1       3.572  10.635  15.494  0.00  0.00     0.027 C 
BRANCH  43  44
ATOM     44  C   UNL d   1       4.575  10.079  16.470  0.00  0.00    -0.031 C 
ATOM     45  C   UNL d   1       5.675   9.403  16.116  0.00  0.00    -0.031 C 
BRANCH  45  46
ATOM     46  C   UNL d   1       6.034   9.170  14.686  0.00  0.00     0.027 C 
BRANCH  46  47
ATOM     47  C   UNL d   1       5.924   7.713  14.285  0.00  0.00     0.004 C 
BRANCH  47  48
ATOM     48  C   UNL d   1       6.316   6.849  15.475  0.00  0.00     0.000 C 
BRANCH  48  49
ATOM     49  C   UNL d   1       5.769   5.446  15.306  0.00  0.00     0.000 C 
BRANCH  49  50
ATOM     50  C   UNL d   1       4.293   5.405  15.675  0.00  0.00     0.000 C 
BRANCH  50  51
ATOM     51  C   UNL d   1       4.059   6.185  16.960  0.00  0.00    -0.000 C 
BRANCH  51  52
ATOM     52  C   UNL d   1       2.733   6.932  16.910  0.00  0.00    -0.005 C 
ATOM     53  C   UNL d   1       2.190   7.150  18.311  0.00  0.00     0.005 C 
ENDBRANCH  51  52
ENDBRANCH  50  51
ENDBRANCH  49  50
ENDBRANCH  48  49
ENDBRANCH  47  48
ENDBRANCH  46  47
ENDBRANCH  45  46
ENDBRANCH  43  44
ENDBRANCH  42  43
ENDBRANCH  41  42
ENDBRANCH  40  41
ENDBRANCH  39  40
ENDBRANCH  38  39
ENDBRANCH  37  38
ENDBRANCH  35  37
ENDBRANCH  34  35
ENDBRANCH   1  34
BRANCH   1  54
ATOM     54  C   UNL d   1      10.183  11.941  18.003  0.00  0.00     0.213 C 
BRANCH  54  55
ATOM     55  O   UNL d   1      11.547  11.504  17.957  0.00  0.00    -0.319 OA
BRANCH  55  56
ATOM     56  C   UNL d   1      12.228  11.571  16.785  0.00  0.00     0.258 C 
ATOM     57  O   UNL d   1      12.588  10.609  16.111  0.00  0.00    -0.265 OA
BRANCH  56  58
ATOM     58  C   UNL d   1      12.386  13.016  16.355  0.00  0.00     0.111 C 
BRANCH  58  59
ATOM     59  C   UNL d   1      13.725  13.608  16.791  0.00  0.00     0.010 C 
BRANCH  59  60
ATOM     60  C   UNL d   1      13.777  15.130  16.691  0.00  0.00     0.000 C 
BRANCH  60  61
ATOM     61  C   UNL d   1      12.950  15.583  15.489  0.00  0.00     0.000 C 
BRANCH  61  62
ATOM     62  C   UNL d   1      12.107  16.806  15.817  0.00  0.00     0.000 C 
BRANCH  62  63
ATOM     63  C   UNL d   1      11.003  16.448  16.808  0.00  0.00     0.000 C 
BRANCH  63  64
ATOM     64  C   UNL d   1       9.960  17.557  16.850  0.00  0.00     0.000 C 
BRANCH  64  65
ATOM     65  C   UNL d   1       9.194  17.533  18.164  0.00  0.00     0.000 C 
BRANCH  65  66
ATOM     66  C   UNL d   1       9.430  18.822  18.940  0.00  0.00     0.000 C 
BRANCH  66  67
ATOM     67  C   UNL d   1       8.233  19.126  19.831  0.00  0.00     0.000 C 
BRANCH  67  68
ATOM     68  C   UNL d   1       8.394  20.483  20.501  0.00  0.00     0.000 C 
BRANCH  68  69
ATOM     69  C   UNL d   1       7.097  21.277  20.414  0.00  0.00     0.000 C 
BRANCH  69  70
ATOM     70  C   UNL d   1       6.085  20.551  19.537  0.00  0.00    -0.000 C 
BRANCH  70  71
ATOM     71  C   UNL d   1       4.664  21.012  19.845  0.00  0.00    -0.005 C 
ATOM     72  C   UNL d   1       4.636  21.880  21.091  0.00  0.00     0.005 C 
ENDBRANCH  70  71
ENDBRANCH  69  70
ENDBRANCH  68  69
ENDBRANCH  67  68
ENDBRANCH  66  67
ENDBRANCH  65  66
ENDBRANCH  64  65
ENDBRANCH  63  64
ENDBRANCH  62  63
ENDBRANCH  61  62
ENDBRANCH  60  61
ENDBRANCH  59  60
ENDBRANCH  58  59
ENDBRANCH  56  58
ENDBRANCH  55  56
ENDBRANCH  54  55
ENDBRANCH   1  54
TORSDOF 50
ENDMDL
MODEL 9
REMARK VINA RESULT:      -6.2      2.080      4.233
REMARK WARNING: 32 MAX_TORS EXCEEDED!!!
REMARK  50 active torsions:
REMARK  status: ('A' for Active; 'I' for Inactive)
REMARK    1  A    between atoms: C_3  and  C_2 
REMARK    2  A    between atoms: C_4  and  C_3 
REMARK    3  A    between atoms: C_5  and  C_4 
REMARK    4  A    between atoms: C_6  and  C_5 
REMARK    5  A    between atoms: C_7  and  C_6 
REMARK    6  A    between atoms: C_8  and  C_7 
REMARK    7  A    between atoms: C_9  and  C_8 
REMARK    8  A    between atoms: C_10  and  C_9 
REMARK    9  A    between atoms: C_11  and  C_10 
REMARK   10  A    between atoms: C_12  and  C_11 
REMARK   11  A    between atoms: C_13  and  C_12 
REMARK   12  A    between atoms: C_14  and  C_13 
REMARK   13  A    between atoms: C_15  and  C_14 
REMARK   14  A    between atoms: C_16  and  C_15 
REMARK   15  A    between atoms: O_17  and  C_16 
REMARK   16  A    between atoms: C_19  and  O_17 
REMARK   17  A    between atoms: C_20  and  C_19 
REMARK   18  A    between atoms: C_20  and  C_22 
REMARK   19  A    between atoms: C_20  and  O_21 
REMARK   20  A    between atoms: O_21  and  C_23 
REMARK   21  A    between atoms: C_22  and  O_24 
REMARK   22  A    between atoms: C_23  and  C_25 
REMARK   23  A    between atoms: O_24  and  P_27 
REMARK   24  A    between atoms: C_25  and  C_28 
REMARK   25  A    between atoms: P_27  and  O_31 
REMARK   26  A    between atoms: P_27  and  O_29 
REMARK   27  A    between atoms: C_28  and  C_32 
REMARK   28  A    between atoms: O_29  and  C_33 
REMARK   29  A    between atoms: C_32  and  C_34 
REMARK   30  A    between atoms: C_34  and  C_37 
REMARK   31  A    between atoms: C_35  and  O_38 
REMARK   32  A    between atoms: C_36  and  O_40 
REMARK   33  A    between atoms: C_37  and  C_42 
REMARK   34  A    between atoms: C_39  and  O_43 
REMARK   35  A    between atoms: C_41  and  O_45 
REMARK   36  A    between atoms: C_42  and  C_46 
REMARK   37  A    between atoms: O_44  and  P_47 
REMARK   38  A    between atoms: O_45  and  P_48 
REMARK   39  A    between atoms: C_46  and  C_49 
REMARK   40  A    between atoms: P_47  and  O_51 
REMARK   41  A    between atoms: P_47  and  O_52 
REMARK   42  A    between atoms: P_48  and  O_54 
REMARK   43  A    between atoms: P_48  and  O_55 
REMARK   44  A    between atoms: C_56  and  C_57 
REMARK   45  A    between atoms: C_57  and  C_58 
REMARK   46  A    between atoms: C_58  and  C_59 
REMARK   47  A    between atoms: C_59  and  C_60 
REMARK   48  A    between atoms: C_60  and  C_61 
REMARK   49  A    between atoms: C_61  and  C_62 
REMARK   50  A    between atoms: C_62  and  C_63 
ROOT
ATOM      1  C   UNL d   1       6.874  10.168  18.548  0.00  0.00     0.180 C 
ENDROOT
BRANCH   1   2
ATOM      2  C   UNL d   1       7.740   9.694  17.363  0.00  0.00     0.215 C 
BRANCH   2   3
ATOM      3  O   UNL d   1       7.040   8.853  16.435  0.00  0.00    -0.294 OA
BRANCH   3   4
ATOM      4  P   UNL d   1       7.604   7.218  16.370  0.00  0.00     0.393 P 
ATOM      5  O   UNL d   1       9.024   7.811  16.481  0.00  0.00    -0.631 OA
BRANCH   4   6
ATOM      6  O   UNL d   1       7.586   7.188  14.741  0.00  0.00    -0.307 OA
ATOM      7  H   UNL d   1       6.714   7.568  14.483  0.00  0.00     0.222 HD
ENDBRANCH   4   6
BRANCH   4   8
ATOM      8  O   UNL d   1       8.170   5.584  16.306  0.00  0.00    -0.286 OA
BRANCH   8   9
ATOM      9  C   UNL d   1       7.932   5.134  14.938  0.00  0.00     0.196 C 
ATOM     10  C   UNL d   1       7.057   3.882  14.856  0.00  0.00     0.181 C 
ATOM     11  C   UNL d   1       7.710   2.712  15.637  0.00  0.00     0.180 C 
ATOM     12  O   UNL d   1       9.035   2.547  15.154  0.00  0.00     0.000 OA
ATOM     13  C   UNL d   1       9.795   3.730  15.304  0.00  0.00     0.197 C 
ATOM     14  C   UNL d   1       9.317   4.808  14.353  0.00  0.00     0.182 C 
BRANCH  10  15
ATOM     15  O   UNL d   1       6.950   3.497  13.471  0.00  0.00    -0.390 OA
ATOM     16  H   UNL d   1       6.258   2.798  13.385  0.00  0.00     0.210 HD
ENDBRANCH  10  15
BRANCH  11  17
ATOM     17  O   UNL d   1       7.720   2.957  17.042  0.00  0.00    -0.390 OA
ATOM     18  H   UNL d   1       8.521   2.584  17.473  0.00  0.00     0.210 HD
ENDBRANCH  11  17
BRANCH  12  19
ATOM     19  P   UNL d   1       9.148   1.703  13.764  0.00  0.00     0.347 P 
ATOM     20  O   UNL d   1       9.445   2.653  12.667  0.00  0.00    -0.645 OA
BRANCH  19  21
ATOM     21  O   UNL d   1      10.390   0.715  14.015  0.00  0.00    -0.321 OA
ATOM     22  H   UNL d   1      10.400  -0.186  13.632  0.00  0.00     0.220 HD
ENDBRANCH  19  21
BRANCH  19  23
ATOM     23  O   UNL d   1       7.927   0.709  13.587  0.00  0.00    -0.321 OA
ATOM     24  H   UNL d   1       7.523   0.746  12.683  0.00  0.00     0.220 HD
ENDBRANCH  19  23
ENDBRANCH  12  19
BRANCH  13  25
ATOM     25  O   UNL d   1      11.192   3.855  15.194  0.00  0.00    -0.286 OA
BRANCH  25  26
ATOM     26  P   UNL d   1      11.833   3.347  16.720  0.00  0.00     0.391 P 
ATOM     27  O   UNL d   1      12.405   2.893  18.085  0.00  0.00    -0.632 OA
BRANCH  26  28
ATOM     28  O   UNL d   1      12.440   2.104  15.864  0.00  0.00    -0.307 OA
ATOM     29  H   UNL d   1      13.101   1.538  16.298  0.00  0.00     0.222 HD
ENDBRANCH  26  28
BRANCH  26  30
ATOM     30  O   UNL d   1      13.039   4.377  16.376  0.00  0.00    -0.307 OA
ATOM     31  H   UNL d   1      13.825   4.394  16.956  0.00  0.00     0.222 HD
ENDBRANCH  26  30
ENDBRANCH  25  26
ENDBRANCH  13  25
BRANCH  14  32
ATOM     32  O   UNL d   1      10.309   5.847  14.372  0.00  0.00    -0.390 OA
ATOM     33  H   UNL d   1      10.131   6.486  13.639  0.00  0.00     0.210 HD
ENDBRANCH  14  32
ENDBRANCH   8   9
ENDBRANCH   4   8
ENDBRANCH   3   4
ENDBRANCH   2   3
ENDBRANCH   1   2
BRANCH   1  34
ATOM     34  O   UNL d   1       7.568  11.195  19.284  0.00  0.00    -0.312 OA
BRANCH  34  35
ATOM     35  C   UNL d   1       6.777  12.177  19.813  0.00  0.00     0.259 C 
ATOM     36  O   UNL d   1       6.432  12.246  20.982  0.00  0.00    -0.265 OA
BRANCH  35  37
ATOM     37  C   UNL d   1       6.449  13.224  18.781  0.00  0.00     0.111 C 
BRANCH  37  38
ATOM     38  C   UNL d   1       7.180  14.530  19.044  0.00  0.00     0.010 C 
BRANCH  38  39
ATOM     39  C   UNL d   1       8.260  14.777  17.995  0.00  0.00     0.000 C 
BRANCH  39  40
ATOM     40  C   UNL d   1       8.104  16.182  17.434  0.00  0.00     0.000 C 
BRANCH  40  41
ATOM     41  C   UNL d   1       8.710  17.237  18.351  0.00  0.00     0.000 C 
BRANCH  41  42
ATOM     42  C   UNL d   1       8.708  18.619  17.694  0.00  0.00     0.004 C 
BRANCH  42  43
ATOM     43  C   UNL d   1       9.003  19.770  18.658  0.00  0.00     0.027 C 
BRANCH  43  44
ATOM     44  C   UNL d   1       8.328  19.583  19.991  0.00  0.00    -0.031 C 
ATOM     45  C   UNL d   1       7.169  20.157  20.336  0.00  0.00    -0.031 C 
BRANCH  45  46
ATOM     46  C   UNL d   1       6.404  21.024  19.391  0.00  0.00     0.027 C 
BRANCH  46  47
ATOM     47  C   UNL d   1       5.840  22.261  20.058  0.00  0.00     0.004 C 
BRANCH  47  48
ATOM     48  C   UNL d   1       6.701  22.599  21.266  0.00  0.00     0.000 C 
BRANCH  48  49
ATOM     49  C   UNL d   1       7.022  24.081  21.283  0.00  0.00     0.000 C 
BRANCH  49  50
ATOM     50  C   UNL d   1       6.545  24.711  22.583  0.00  0.00     0.000 C 
BRANCH  50  51
ATOM     51  C   UNL d   1       5.196  24.127  22.976  0.00  0.00    -0.000 C 
BRANCH  51  52
ATOM     52  C   UNL d   1       5.183  23.725  24.445  0.00  0.00    -0.005 C 
ATOM     53  C   UNL d   1       6.557  23.916  25.063  0.00  0.00     0.005 C 
ENDBRANCH  51  52
ENDBRANCH  50  51
ENDBRANCH  49  50
ENDBRANCH  48  49
ENDBRANCH  47  48
ENDBRANCH  46  47
ENDBRANCH  45  46
ENDBRANCH  43  44
ENDBRANCH  42  43
ENDBRANCH  41  42
ENDBRANCH  40  41
ENDBRANCH  39  40
ENDBRANCH  38  39
ENDBRANCH  37  38
ENDBRANCH  35  37
ENDBRANCH  34  35
ENDBRANCH   1  34
BRANCH   1  54
ATOM     54  C   UNL d   1       6.587   8.975  19.468  0.00  0.00     0.213 C 
BRANCH  54  55
ATOM     55  O   UNL d   1       7.684   8.665  20.338  0.00  0.00    -0.319 OA
BRANCH  55  56
ATOM     56  C   UNL d   1       7.827   7.398  20.804  0.00  0.00     0.258 C 
ATOM     57  O   UNL d   1       6.987   6.506  20.716  0.00  0.00    -0.265 OA
BRANCH  56  58
ATOM     58  C   UNL d   1       9.226   7.198  21.351  0.00  0.00     0.111 C 
BRANCH  58  59
ATOM     59  C   UNL d   1       9.962   8.520  21.562  0.00  0.00     0.010 C 
BRANCH  59  60
ATOM     60  C   UNL d   1      11.222   8.655  20.712  0.00  0.00     0.000 C 
BRANCH  60  61
ATOM     61  C   UNL d   1      10.867   9.341  19.393  0.00  0.00     0.000 C 
BRANCH  61  62
ATOM     62  C   UNL d   1      11.239  10.816  19.412  0.00  0.00     0.000 C 
BRANCH  62  63
ATOM     63  C   UNL d   1      11.084  11.427  18.023  0.00  0.00     0.000 C 
BRANCH  63  64
ATOM     64  C   UNL d   1      12.325  11.143  17.188  0.00  0.00     0.000 C 
BRANCH  64  65
ATOM     65  C   UNL d   1      12.467  12.156  16.062  0.00  0.00     0.000 C 
BRANCH  65  66
ATOM     66  C   UNL d   1      12.557  13.568  16.626  0.00  0.00     0.000 C 
BRANCH  66  67
ATOM     67  C   UNL d   1      13.958  14.127  16.425  0.00  0.00     0.000 C 
BRANCH  67  68
ATOM     68  C   UNL d   1      13.969  15.635  16.630  0.00  0.00     0.000 C 
BRANCH  68  69
ATOM     69  C   UNL d   1      12.922  16.042  17.659  0.00  0.00     0.000 C 
BRANCH  69  70
ATOM     70  C   UNL d   1      11.879  16.954  17.025  0.00  0.00    -0.000 C 
BRANCH  70  71
ATOM     71  C   UNL d   1      12.451  17.674  15.809  0.00  0.00    -0.005 C 
ATOM     72  C   UNL d   1      11.727  18.986  15.567  0.00  0.00     0.005 C 
ENDBRANCH  70  71
ENDBRANCH  69  70
ENDBRANCH  68  69
ENDBRANCH  67  68
ENDBRANCH  66  67
ENDBRANCH  65  66
ENDBRANCH  64  65
ENDBRANCH  63  64
ENDBRANCH  62  63
ENDBRANCH  61  62
ENDBRANCH  60  61
ENDBRANCH  59  60
ENDBRANCH  58  59
ENDBRANCH  56  58
ENDBRANCH  55  56
ENDBRANCH  54  55
ENDBRANCH   1  54
TORSDOF 50
ENDMDL
