MODEL 1
REMARK VINA RESULT:      -2.8      0.000      0.000
REMARK  2 active torsions:
REMARK  status: ('A' for Active; 'I' for Inactive)
REMARK    1  A    between atoms: C_2  and  O_1 
REMARK    2  A    between atoms: C_3  and  C_2 
ROOT
ATOM      1  C   UNL d   1      26.649  34.722  29.953  0.00  0.00     0.213 C 
ATOM      2  O   UNL d   1      27.303  35.103  29.005  0.00  0.00    -0.644 OA
ENDROOT
BRANCH   1   3
ATOM      3  C   UNL d   1      26.963  33.449  30.732  0.00  0.00     0.218 C 
ATOM      4  C   UNL d   1      27.972  32.521  30.132  0.00  0.00     0.103 C 
ATOM      5  O   UNL d   1      26.371  33.269  31.792  0.00  0.00    -0.286 OA
ENDBRANCH   1   3
BRANCH   1   6
ATOM      6  O   UNL d   1      25.567  35.336  30.469  0.00  0.00    -0.771 OA
ATOM      7  H   UNL d   1      25.367  36.142  29.935  0.00  0.00     0.168 HD
ENDBRANCH   1   6
TORSDOF 2
ENDMDL
MODEL 2
REMARK VINA RESULT:      -2.5      8.713      9.258
REMARK  2 active torsions:
REMARK  status: ('A' for Active; 'I' for Inactive)
REMARK    1  A    between atoms: C_2  and  O_1 
REMARK    2  A    between atoms: C_3  and  C_2 
ROOT
ATOM      1  C   UNL d   1      22.001  35.586  22.894  0.00  0.00     0.213 C 
ATOM      2  O   UNL d   1      22.559  34.621  22.417  0.00  0.00    -0.644 OA
ENDROOT
BRANCH   1   3
ATOM      3  C   UNL d   1      20.682  35.502  23.656  0.00  0.00     0.218 C 
ATOM      4  C   UNL d   1      20.747  35.001  25.064  0.00  0.00     0.103 C 
ATOM      5  O   UNL d   1      19.661  35.846  23.068  0.00  0.00    -0.286 OA
ENDBRANCH   1   3
BRANCH   1   6
ATOM      6  O   UNL d   1      22.432  36.861  22.837  0.00  0.00    -0.771 OA
ATOM      7  H   UNL d   1      22.043  37.297  22.041  0.00  0.00     0.168 HD
ENDBRANCH   1   6
TORSDOF 2
ENDMDL
MODEL 3
REMARK VINA RESULT:      -2.3     13.318     13.900
REMARK  2 active torsions:
REMARK  status: ('A' for Active; 'I' for Inactive)
REMARK    1  A    between atoms: C_2  and  O_1 
REMARK    2  A    between atoms: C_3  and  C_2 
ROOT
ATOM      1  C   UNL d   1      15.947  36.240  22.669  0.00  0.00     0.213 C 
ATOM      2  O   UNL d   1      16.345  35.105  22.828  0.00  0.00    -0.644 OA
ENDROOT
BRANCH   1   3
ATOM      3  C   UNL d   1      16.428  37.147  21.541  0.00  0.00     0.218 C 
ATOM      4  C   UNL d   1      17.252  36.512  20.467  0.00  0.00     0.103 C 
ATOM      5  O   UNL d   1      16.111  38.333  21.589  0.00  0.00    -0.286 OA
ENDBRANCH   1   3
BRANCH   1   6
ATOM      6  O   UNL d   1      15.040  36.878  23.433  0.00  0.00    -0.771 OA
ATOM      7  H   UNL d   1      14.147  36.780  23.024  0.00  0.00     0.168 HD
ENDBRANCH   1   6
TORSDOF 2
ENDMDL
MODEL 4
REMARK VINA RESULT:      -2.2      7.846      8.351
REMARK  2 active torsions:
REMARK  status: ('A' for Active; 'I' for Inactive)
REMARK    1  A    between atoms: C_2  and  O_1 
REMARK    2  A    between atoms: C_3  and  C_2 
ROOT
ATOM      1  C   UNL d   1      21.109  34.910  24.120  0.00  0.00     0.213 C 
ATOM      2  O   UNL d   1      21.605  34.715  23.031  0.00  0.00    -0.644 OA
ENDROOT
BRANCH   1   3
ATOM      3  C   UNL d   1      20.751  33.791  25.092  0.00  0.00     0.218 C 
ATOM      4  C   UNL d   1      19.463  33.069  24.847  0.00  0.00     0.103 C 
ATOM      5  O   UNL d   1      21.536  33.557  26.006  0.00  0.00    -0.286 OA
ENDBRANCH   1   3
BRANCH   1   6
ATOM      6  O   UNL d   1      20.797  36.110  24.647  0.00  0.00    -0.771 OA
ATOM      7  H   UNL d   1      19.814  36.191  24.705  0.00  0.00     0.168 HD
ENDBRANCH   1   6
TORSDOF 2
ENDMDL
MODEL 5
REMARK VINA RESULT:      -2.1      1.420      2.495
REMARK  2 active torsions:
REMARK  status: ('A' for Active; 'I' for Inactive)
REMARK    1  A    between atoms: C_2  and  O_1 
REMARK    2  A    between atoms: C_3  and  C_2 
ROOT
ATOM      1  C   UNL d   1      26.794  33.449  30.195  0.00  0.00     0.213 C 
ATOM      2  O   UNL d   1      26.960  32.909  31.268  0.00  0.00    -0.644 OA
ENDROOT
BRANCH   1   3
ATOM      3  C   UNL d   1      27.811  34.394  29.565  0.00  0.00     0.218 C 
ATOM      4  C   UNL d   1      29.252  34.005  29.671  0.00  0.00     0.103 C 
ATOM      5  O   UNL d   1      27.385  35.407  29.017  0.00  0.00    -0.286 OA
ENDBRANCH   1   3
BRANCH   1   6
ATOM      6  O   UNL d   1      25.719  33.313  29.395  0.00  0.00    -0.771 OA
ATOM      7  H   UNL d   1      25.336  32.411  29.521  0.00  0.00     0.168 HD
ENDBRANCH   1   6
TORSDOF 2
ENDMDL
MODEL 6
REMARK VINA RESULT:      -1.8      2.005      2.620
REMARK  2 active torsions:
REMARK  status: ('A' for Active; 'I' for Inactive)
REMARK    1  A    between atoms: C_2  and  O_1 
REMARK    2  A    between atoms: C_3  and  C_2 
ROOT
ATOM      1  C   UNL d   1      27.053  33.015  28.535  0.00  0.00     0.213 C 
ATOM      2  O   UNL d   1      25.925  32.705  28.213  0.00  0.00    -0.644 OA
ENDROOT
BRANCH   1   3
ATOM      3  C   UNL d   1      27.393  33.670  29.870  0.00  0.00     0.218 C 
ATOM      4  C   UNL d   1      28.314  34.849  29.829  0.00  0.00     0.103 C 
ATOM      5  O   UNL d   1      26.895  33.190  30.884  0.00  0.00    -0.286 OA
ENDBRANCH   1   3
BRANCH   1   6
ATOM      6  O   UNL d   1      28.166  32.843  27.797  0.00  0.00    -0.771 OA
ATOM      7  H   UNL d   1      28.411  33.702  27.377  0.00  0.00     0.168 HD
ENDBRANCH   1   6
TORSDOF 2
ENDMDL
MODEL 7
REMARK VINA RESULT:      -1.7     10.314     11.293
REMARK  2 active torsions:
REMARK  status: ('A' for Active; 'I' for Inactive)
REMARK    1  A    between atoms: C_2  and  O_1 
REMARK    2  A    between atoms: C_3  and  C_2 
ROOT
ATOM      1  C   UNL d   1      34.325  26.794  31.363  0.00  0.00     0.213 C 
ATOM      2  O   UNL d   1      33.162  26.515  31.164  0.00  0.00    -0.644 OA
ENDROOT
BRANCH   1   3
ATOM      3  C   UNL d   1      35.235  25.987  32.284  0.00  0.00     0.218 C 
ATOM      4  C   UNL d   1      35.665  24.639  31.797  0.00  0.00     0.103 C 
ATOM      5  O   UNL d   1      35.552  26.492  33.357  0.00  0.00    -0.286 OA
ENDBRANCH   1   3
BRANCH   1   6
ATOM      6  O   UNL d   1      34.997  27.829  30.825  0.00  0.00    -0.771 OA
ATOM      7  H   UNL d   1      35.966  27.641  30.865  0.00  0.00     0.168 HD
ENDBRANCH   1   6
TORSDOF 2
ENDMDL
MODEL 8
REMARK VINA RESULT:      -1.6     11.585     12.636
REMARK  2 active torsions:
REMARK  status: ('A' for Active; 'I' for Inactive)
REMARK    1  A    between atoms: C_2  and  O_1 
REMARK    2  A    between atoms: C_3  and  C_2 
ROOT
ATOM      1  C   UNL d   1      34.476  26.133  35.091  0.00  0.00     0.213 C 
ATOM      2  O   UNL d   1      33.342  26.546  34.969  0.00  0.00    -0.644 OA
ENDROOT
BRANCH   1   3
ATOM      3  C   UNL d   1      35.468  26.693  36.105  0.00  0.00     0.218 C 
ATOM      4  C   UNL d   1      35.594  25.960  37.404  0.00  0.00     0.103 C 
ATOM      5  O   UNL d   1      36.093  27.703  35.794  0.00  0.00    -0.286 OA
ENDBRANCH   1   3
BRANCH   1   6
ATOM      6  O   UNL d   1      35.040  25.139  34.379  0.00  0.00    -0.771 OA
ATOM      7  H   UNL d   1      35.801  24.769  34.888  0.00  0.00     0.168 HD
ENDBRANCH   1   6
TORSDOF 2
ENDMDL
MODEL 9
REMARK VINA RESULT:      -1.4     10.419     11.688
REMARK  2 active torsions:
REMARK  status: ('A' for Active; 'I' for Inactive)
REMARK    1  A    between atoms: C_2  and  O_1 
REMARK    2  A    between atoms: C_3  and  C_2 
ROOT
ATOM      1  C   UNL d   1      35.387  25.942  32.663  0.00  0.00     0.213 C 
ATOM      2  O   UNL d   1      35.721  26.458  33.708  0.00  0.00    -0.644 OA
ENDROOT
BRANCH   1   3
ATOM      3  C   UNL d   1      34.275  26.488  31.774  0.00  0.00     0.218 C 
ATOM      4  C   UNL d   1      34.690  27.347  30.622  0.00  0.00     0.103 C 
ATOM      5  O   UNL d   1      33.118  26.191  32.062  0.00  0.00    -0.286 OA
ENDBRANCH   1   3
BRANCH   1   6
ATOM      6  O   UNL d   1      35.923  24.832  32.119  0.00  0.00    -0.771 OA
ATOM      7  H   UNL d   1      35.740  24.828  31.149  0.00  0.00     0.168 HD
ENDBRANCH   1   6
TORSDOF 2
ENDMDL
