MODEL 1
REMARK VINA RESULT:      -5.2      0.000      0.000
REMARK  9 active torsions:
REMARK  status: ('A' for Active; 'I' for Inactive)
REMARK    1  A    between atoms: C_2  and  O_1 
REMARK    2  A    between atoms: C_3  and  O_5 
REMARK    3  A    between atoms: C_4  and  O_7 
REMARK    4  A    between atoms: O_5  and  P_9 
REMARK    5  A    between atoms: C_6  and  O_10 
REMARK    6  A    between atoms: O_12  and  C_8 
REMARK    7  A    between atoms: P_9  and  O_14 
REMARK    8  A    between atoms: P_9  and  O_15 
REMARK    9  A    between atoms: C_11  and  O_16 
ROOT
ATOM      1  C   UNL d   1     -21.899 -12.683  24.164  0.00  0.00     0.181 C 
ATOM      2  C   UNL d   1     -22.140 -13.946  25.011  0.00  0.00     0.196 C 
ATOM      3  C   UNL d   1     -22.238 -11.377  24.910  0.00  0.00     0.180 C 
ATOM      4  C   UNL d   1     -23.579 -13.930  25.575  0.00  0.00     0.181 C 
ATOM      5  C   UNL d   1     -23.679 -11.415  25.476  0.00  0.00     0.180 C 
ATOM      6  C   UNL d   1     -23.895 -12.645  26.363  0.00  0.00     0.180 C 
ENDROOT
BRANCH   2   7
ATOM      7  O   UNL d   1     -21.148 -14.049  26.042  0.00  0.00    -0.286 OA
BRANCH   7   8
ATOM      8  P   UNL d   1     -20.207 -15.497  25.946  0.00  0.00     0.391 P 
ATOM      9  O   UNL d   1     -19.363 -16.792  25.858  0.00  0.00    -0.632 OA
BRANCH   8  10
ATOM     10  O   UNL d   1     -21.146 -16.028  27.171  0.00  0.00    -0.307 OA
ATOM     11  H   UNL d   1     -21.941 -16.460  26.813  0.00  0.00     0.222 HD
ENDBRANCH   8  10
BRANCH   8  12
ATOM     12  O   UNL d   1     -21.231 -16.035  24.780  0.00  0.00    -0.307 OA
ATOM     13  H   UNL d   1     -20.628 -16.511  24.163  0.00  0.00     0.222 HD
ENDBRANCH   8  12
ENDBRANCH   7   8
ENDBRANCH   2   7
BRANCH   4  14
ATOM     14  O   UNL d   1     -23.788 -15.103  26.370  0.00  0.00    -0.390 OA
ATOM     15  H   UNL d   1     -24.622 -15.527  26.093  0.00  0.00     0.210 HD
ENDBRANCH   4  14
BRANCH   1  16
ATOM     16  O   UNL d   1     -22.700 -12.764  22.984  0.00  0.00    -0.390 OA
ATOM     17  H   UNL d   1     -22.796 -13.703  22.747  0.00  0.00     0.210 HD
ENDBRANCH   1  16
BRANCH   6  18
ATOM     18  O   UNL d   1     -23.070 -12.474  27.528  0.00  0.00    -0.390 OA
ATOM     19  H   UNL d   1     -22.125 -12.397  27.265  0.00  0.00     0.210 HD
ENDBRANCH   6  18
BRANCH   3  20
ATOM     20  O   UNL d   1     -21.278 -11.123  25.948  0.00  0.00    -0.390 OA
ATOM     21  H   UNL d   1     -21.609 -11.543  26.769  0.00  0.00     0.210 HD
ENDBRANCH   3  20
BRANCH   5  22
ATOM     22  O   UNL d   1     -23.935 -10.242  26.260  0.00  0.00    -0.390 OA
ATOM     23  H   UNL d   1     -23.691  -9.488  25.687  0.00  0.00     0.210 HD
ENDBRANCH   5  22
TORSDOF 9
ENDMDL
MODEL 2
REMARK VINA RESULT:      -4.5     10.517     11.919
REMARK  9 active torsions:
REMARK  status: ('A' for Active; 'I' for Inactive)
REMARK    1  A    between atoms: C_2  and  O_1 
REMARK    2  A    between atoms: C_3  and  O_5 
REMARK    3  A    between atoms: C_4  and  O_7 
REMARK    4  A    between atoms: O_5  and  P_9 
REMARK    5  A    between atoms: C_6  and  O_10 
REMARK    6  A    between atoms: O_12  and  C_8 
REMARK    7  A    between atoms: P_9  and  O_14 
REMARK    8  A    between atoms: P_9  and  O_15 
REMARK    9  A    between atoms: C_11  and  O_16 
ROOT
ATOM      1  C   UNL d   1     -28.796 -16.177  14.886  0.00  0.00     0.181 C 
ATOM      2  C   UNL d   1     -27.719 -16.761  15.820  0.00  0.00     0.196 C 
ATOM      3  C   UNL d   1     -28.475 -14.747  14.407  0.00  0.00     0.180 C 
ATOM      4  C   UNL d   1     -27.451 -15.780  16.985  0.00  0.00     0.181 C 
ATOM      5  C   UNL d   1     -28.192 -13.807  15.605  0.00  0.00     0.180 C 
ATOM      6  C   UNL d   1     -27.081 -14.366  16.499  0.00  0.00     0.180 C 
ENDROOT
BRANCH   2   7
ATOM      7  O   UNL d   1     -26.531 -17.066  15.076  0.00  0.00    -0.286 OA
BRANCH   7   8
ATOM      8  P   UNL d   1     -26.412 -18.733  14.630  0.00  0.00     0.391 P 
ATOM      9  O   UNL d   1     -26.307 -20.225  14.230  0.00  0.00    -0.632 OA
BRANCH   8  10
ATOM     10  O   UNL d   1     -24.802 -18.526  14.808  0.00  0.00    -0.307 OA
ATOM     11  H   UNL d   1     -24.540 -17.661  14.448  0.00  0.00     0.222 HD
ENDBRANCH   8  10
BRANCH   8  12
ATOM     12  O   UNL d   1     -26.647 -19.129  16.206  0.00  0.00    -0.307 OA
ATOM     13  H   UNL d   1     -26.747 -20.108  16.172  0.00  0.00     0.222 HD
ENDBRANCH   8  12
ENDBRANCH   7   8
ENDBRANCH   2   7
BRANCH   4  14
ATOM     14  O   UNL d   1     -26.440 -16.327  17.839  0.00  0.00    -0.390 OA
ATOM     15  H   UNL d   1     -25.899 -15.597  18.196  0.00  0.00     0.210 HD
ENDBRANCH   4  14
BRANCH   1  16
ATOM     16  O   UNL d   1     -30.045 -16.165  15.581  0.00  0.00    -0.390 OA
ATOM     17  H   UNL d   1     -30.725 -16.528  14.987  0.00  0.00     0.210 HD
ENDBRANCH   1  16
BRANCH   6  18
ATOM     18  O   UNL d   1     -25.865 -14.326  15.733  0.00  0.00    -0.390 OA
ATOM     19  H   UNL d   1     -25.109 -14.080  16.313  0.00  0.00     0.210 HD
ENDBRANCH   6  18
BRANCH   3  20
ATOM     20  O   UNL d   1     -27.376 -14.757  13.483  0.00  0.00    -0.390 OA
ATOM     21  H   UNL d   1     -26.991 -13.856  13.468  0.00  0.00     0.210 HD
ENDBRANCH   3  20
BRANCH   5  22
ATOM     22  O   UNL d   1     -27.787 -12.514  15.136  0.00  0.00    -0.390 OA
ATOM     23  H   UNL d   1     -28.615 -12.059  14.883  0.00  0.00     0.210 HD
ENDBRANCH   5  22
TORSDOF 9
ENDMDL
MODEL 3
REMARK VINA RESULT:      -4.5     10.765     11.806
REMARK  9 active torsions:
REMARK  status: ('A' for Active; 'I' for Inactive)
REMARK    1  A    between atoms: C_2  and  O_1 
REMARK    2  A    between atoms: C_3  and  O_5 
REMARK    3  A    between atoms: C_4  and  O_7 
REMARK    4  A    between atoms: O_5  and  P_9 
REMARK    5  A    between atoms: C_6  and  O_10 
REMARK    6  A    between atoms: O_12  and  C_8 
REMARK    7  A    between atoms: P_9  and  O_14 
REMARK    8  A    between atoms: P_9  and  O_15 
REMARK    9  A    between atoms: C_11  and  O_16 
ROOT
ATOM      1  C   UNL d   1     -25.834 -14.409  13.973  0.00  0.00     0.181 C 
ATOM      2  C   UNL d   1     -27.001 -15.115  14.689  0.00  0.00     0.196 C 
ATOM      3  C   UNL d   1     -25.914 -12.871  14.050  0.00  0.00     0.180 C 
ATOM      4  C   UNL d   1     -28.347 -14.554  14.173  0.00  0.00     0.181 C 
ATOM      5  C   UNL d   1     -27.285 -12.357  13.545  0.00  0.00     0.180 C 
ATOM      6  C   UNL d   1     -28.440 -13.022  14.300  0.00  0.00     0.180 C 
ENDROOT
BRANCH   2   7
ATOM      7  O   UNL d   1     -26.863 -14.984  16.111  0.00  0.00    -0.286 OA
BRANCH   7   8
ATOM      8  P   UNL d   1     -26.382 -16.452  16.890  0.00  0.00     0.391 P 
ATOM      9  O   UNL d   1     -25.951 -17.766  17.586  0.00  0.00    -0.632 OA
BRANCH   8  10
ATOM     10  O   UNL d   1     -27.540 -16.091  17.984  0.00  0.00    -0.307 OA
ATOM     11  H   UNL d   1     -27.705 -15.132  17.984  0.00  0.00     0.222 HD
ENDBRANCH   8  10
BRANCH   8  12
ATOM     12  O   UNL d   1     -27.413 -17.264  15.903  0.00  0.00    -0.307 OA
ATOM     13  H   UNL d   1     -27.353 -16.757  15.060  0.00  0.00     0.222 HD
ENDBRANCH   8  12
ENDBRANCH   7   8
ENDBRANCH   2   7
BRANCH   4  14
ATOM     14  O   UNL d   1     -29.424 -15.208  14.853  0.00  0.00    -0.390 OA
ATOM     15  H   UNL d   1     -29.200 -16.151  14.964  0.00  0.00     0.210 HD
ENDBRANCH   4  14
BRANCH   1  16
ATOM     16  O   UNL d   1     -25.834 -14.805  12.600  0.00  0.00    -0.390 OA
ATOM     17  H   UNL d   1     -25.895 -14.002  12.054  0.00  0.00     0.210 HD
ENDBRANCH   1  16
BRANCH   6  18
ATOM     18  O   UNL d   1     -28.377 -12.558  15.659  0.00  0.00    -0.390 OA
ATOM     19  H   UNL d   1     -28.875 -13.168  16.248  0.00  0.00     0.210 HD
ENDBRANCH   6  18
BRANCH   3  20
ATOM     20  O   UNL d   1     -25.650 -12.417  15.387  0.00  0.00    -0.390 OA
ATOM     21  H   UNL d   1     -25.073 -11.628  15.325  0.00  0.00     0.210 HD
ENDBRANCH   3  20
BRANCH   5  22
ATOM     22  O   UNL d   1     -27.381 -10.939  13.730  0.00  0.00    -0.390 OA
ATOM     23  H   UNL d   1     -27.574 -10.574  12.843  0.00  0.00     0.210 HD
ENDBRANCH   5  22
TORSDOF 9
ENDMDL
MODEL 4
REMARK VINA RESULT:      -4.4     12.870     14.104
REMARK  9 active torsions:
REMARK  status: ('A' for Active; 'I' for Inactive)
REMARK    1  A    between atoms: C_2  and  O_1 
REMARK    2  A    between atoms: C_3  and  O_5 
REMARK    3  A    between atoms: C_4  and  O_7 
REMARK    4  A    between atoms: O_5  and  P_9 
REMARK    5  A    between atoms: C_6  and  O_10 
REMARK    6  A    between atoms: O_12  and  C_8 
REMARK    7  A    between atoms: P_9  and  O_14 
REMARK    8  A    between atoms: P_9  and  O_15 
REMARK    9  A    between atoms: C_11  and  O_16 
ROOT
ATOM      1  C   UNL d   1     -22.386 -22.376  38.029  0.00  0.00     0.181 C 
ATOM      2  C   UNL d   1     -21.373 -21.793  37.027  0.00  0.00     0.196 C 
ATOM      3  C   UNL d   1     -23.604 -21.460  38.266  0.00  0.00     0.180 C 
ATOM      4  C   UNL d   1     -20.977 -20.361  37.458  0.00  0.00     0.181 C 
ATOM      5  C   UNL d   1     -23.159 -20.034  38.673  0.00  0.00     0.180 C 
ATOM      6  C   UNL d   1     -22.195 -19.437  37.643  0.00  0.00     0.180 C 
ENDROOT
BRANCH   2   7
ATOM      7  O   UNL d   1     -21.909 -21.835  35.697  0.00  0.00    -0.286 OA
BRANCH   7   8
ATOM      8  P   UNL d   1     -22.078 -23.441  35.077  0.00  0.00     0.391 P 
ATOM      9  O   UNL d   1     -22.228 -24.878  34.522  0.00  0.00    -0.632 OA
BRANCH   8  10
ATOM     10  O   UNL d   1     -23.556 -22.950  34.584  0.00  0.00    -0.307 OA
ATOM     11  H   UNL d   1     -23.761 -23.343  33.718  0.00  0.00     0.222 HD
ENDBRANCH   8  10
BRANCH   8  12
ATOM     12  O   UNL d   1     -21.332 -22.943  33.701  0.00  0.00    -0.307 OA
ATOM     13  H   UNL d   1     -21.990 -22.324  33.308  0.00  0.00     0.222 HD
ENDBRANCH   8  12
ENDBRANCH   7   8
ENDBRANCH   2   7
BRANCH   4  14
ATOM     14  O   UNL d   1     -20.044 -19.824  36.513  0.00  0.00    -0.390 OA
ATOM     15  H   UNL d   1     -20.365 -20.012  35.611  0.00  0.00     0.210 HD
ENDBRANCH   4  14
BRANCH   1  16
ATOM     16  O   UNL d   1     -21.722 -22.596  39.274  0.00  0.00    -0.390 OA
ATOM     17  H   UNL d   1     -20.793 -22.816  39.087  0.00  0.00     0.210 HD
ENDBRANCH   1  16
BRANCH   6  18
ATOM     18  O   UNL d   1     -22.945 -19.233  36.434  0.00  0.00    -0.390 OA
ATOM     19  H   UNL d   1     -23.881 -19.502  36.569  0.00  0.00     0.210 HD
ENDBRANCH   6  18
BRANCH   3  20
ATOM     20  O   UNL d   1     -24.448 -21.429  37.104  0.00  0.00    -0.390 OA
ATOM     21  H   UNL d   1     -24.435 -22.323  36.703  0.00  0.00     0.210 HD
ENDBRANCH   3  20
BRANCH   5  22
ATOM     22  O   UNL d   1     -24.298 -19.170  38.779  0.00  0.00    -0.390 OA
ATOM     23  H   UNL d   1     -23.946 -18.264  38.674  0.00  0.00     0.210 HD
ENDBRANCH   5  22
TORSDOF 9
ENDMDL
MODEL 5
REMARK VINA RESULT:      -4.4     10.609     12.541
REMARK  9 active torsions:
REMARK  status: ('A' for Active; 'I' for Inactive)
REMARK    1  A    between atoms: C_2  and  O_1 
REMARK    2  A    between atoms: C_3  and  O_5 
REMARK    3  A    between atoms: C_4  and  O_7 
REMARK    4  A    between atoms: O_5  and  P_9 
REMARK    5  A    between atoms: C_6  and  O_10 
REMARK    6  A    between atoms: O_12  and  C_8 
REMARK    7  A    between atoms: P_9  and  O_14 
REMARK    8  A    between atoms: P_9  and  O_15 
REMARK    9  A    between atoms: C_11  and  O_16 
ROOT
ATOM      1  C   UNL d   1     -27.013 -15.244  13.695  0.00  0.00     0.181 C 
ATOM      2  C   UNL d   1     -26.278 -14.798  14.972  0.00  0.00     0.196 C 
ATOM      3  C   UNL d   1     -28.544 -15.316  13.867  0.00  0.00     0.180 C 
ATOM      4  C   UNL d   1     -26.711 -15.686  16.161  0.00  0.00     0.181 C 
ATOM      5  C   UNL d   1     -28.929 -16.196  15.081  0.00  0.00     0.180 C 
ATOM      6  C   UNL d   1     -28.238 -15.712  16.360  0.00  0.00     0.180 C 
ENDROOT
BRANCH   2   7
ATOM      7  O   UNL d   1     -26.512 -13.403  15.217  0.00  0.00    -0.286 OA
BRANCH   7   8
ATOM      8  P   UNL d   1     -25.897 -12.377  13.968  0.00  0.00     0.391 P 
ATOM      9  O   UNL d   1     -25.346 -11.458  12.849  0.00  0.00    -0.632 OA
BRANCH   8  10
ATOM     10  O   UNL d   1     -27.229 -11.472  14.243  0.00  0.00    -0.307 OA
ATOM     11  H   UNL d   1     -27.040 -10.538  14.043  0.00  0.00     0.222 HD
ENDBRANCH   8  10
BRANCH   8  12
ATOM     12  O   UNL d   1     -25.000 -11.601  15.104  0.00  0.00    -0.307 OA
ATOM     13  H   UNL d   1     -25.602 -10.881  15.403  0.00  0.00     0.222 HD
ENDBRANCH   8  12
ENDBRANCH   7   8
ENDBRANCH   2   7
BRANCH   4  14
ATOM     14  O   UNL d   1     -26.031 -15.254  17.346  0.00  0.00    -0.390 OA
ATOM     15  H   UNL d   1     -25.085 -15.132  17.140  0.00  0.00     0.210 HD
ENDBRANCH   4  14
BRANCH   1  16
ATOM     16  O   UNL d   1     -26.529 -16.534  13.316  0.00  0.00    -0.390 OA
ATOM     17  H   UNL d   1     -26.366 -16.527  12.357  0.00  0.00     0.210 HD
ENDBRANCH   1  16
BRANCH   6  18
ATOM     18  O   UNL d   1     -28.794 -14.425  16.677  0.00  0.00    -0.390 OA
ATOM     19  H   UNL d   1     -28.073 -13.786  16.880  0.00  0.00     0.210 HD
ENDBRANCH   6  18
BRANCH   3  20
ATOM     20  O   UNL d   1     -29.102 -13.998  13.983  0.00  0.00    -0.390 OA
ATOM     21  H   UNL d   1     -28.825 -13.486  13.196  0.00  0.00     0.210 HD
ENDBRANCH   3  20
BRANCH   5  22
ATOM     22  O   UNL d   1     -30.346 -16.159  15.292  0.00  0.00    -0.390 OA
ATOM     23  H   UNL d   1     -30.740 -16.521  14.473  0.00  0.00     0.210 HD
ENDBRANCH   5  22
TORSDOF 9
ENDMDL
MODEL 6
REMARK VINA RESULT:      -4.2     17.596     19.476
REMARK  9 active torsions:
REMARK  status: ('A' for Active; 'I' for Inactive)
REMARK    1  A    between atoms: C_2  and  O_1 
REMARK    2  A    between atoms: C_3  and  O_5 
REMARK    3  A    between atoms: C_4  and  O_7 
REMARK    4  A    between atoms: O_5  and  P_9 
REMARK    5  A    between atoms: C_6  and  O_10 
REMARK    6  A    between atoms: O_12  and  C_8 
REMARK    7  A    between atoms: P_9  and  O_14 
REMARK    8  A    between atoms: P_9  and  O_15 
REMARK    9  A    between atoms: C_11  and  O_16 
ROOT
ATOM      1  C   UNL d   1     -31.765  -9.558  10.651  0.00  0.00     0.181 C 
ATOM      2  C   UNL d   1     -33.063  -9.035  10.007  0.00  0.00     0.196 C 
ATOM      3  C   UNL d   1     -31.282  -8.694  11.833  0.00  0.00     0.180 C 
ATOM      4  C   UNL d   1     -32.897  -7.543   9.636  0.00  0.00     0.181 C 
ATOM      5  C   UNL d   1     -31.152  -7.207  11.422  0.00  0.00     0.180 C 
ATOM      6  C   UNL d   1     -32.464  -6.677  10.834  0.00  0.00     0.180 C 
ENDROOT
BRANCH   2   7
ATOM      7  O   UNL d   1     -34.177  -9.262  10.881  0.00  0.00    -0.286 OA
BRANCH   7   8
ATOM      8  P   UNL d   1     -35.321 -10.397  10.253  0.00  0.00     0.391 P 
ATOM      9  O   UNL d   1     -36.345 -11.413   9.690  0.00  0.00    -0.632 OA
BRANCH   8  10
ATOM     10  O   UNL d   1     -36.050 -10.262  11.709  0.00  0.00    -0.307 OA
ATOM     11  H   UNL d   1     -36.893  -9.787  11.612  0.00  0.00     0.222 HD
ENDBRANCH   8  10
BRANCH   8  12
ATOM     12  O   UNL d   1     -36.148  -9.138   9.599  0.00  0.00    -0.307 OA
ATOM     13  H   UNL d   1     -35.727  -8.356  10.025  0.00  0.00     0.222 HD
ENDBRANCH   8  12
ENDBRANCH   7   8
ENDBRANCH   2   7
BRANCH   4  14
ATOM     14  O   UNL d   1     -34.113  -7.064   9.049  0.00  0.00    -0.390 OA
ATOM     15  H   UNL d   1     -34.061  -6.093   8.965  0.00  0.00     0.210 HD
ENDBRANCH   4  14
BRANCH   1  16
ATOM     16  O   UNL d   1     -30.742  -9.594   9.654  0.00  0.00    -0.390 OA
ATOM     17  H   UNL d   1     -30.163 -10.352   9.842  0.00  0.00     0.210 HD
ENDBRANCH   1  16
BRANCH   6  18
ATOM     18  O   UNL d   1     -33.426  -6.658  11.901  0.00  0.00    -0.390 OA
ATOM     19  H   UNL d   1     -34.088  -5.946  11.747  0.00  0.00     0.210 HD
ENDBRANCH   6  18
BRANCH   3  20
ATOM     20  O   UNL d   1     -32.156  -8.847  12.962  0.00  0.00    -0.390 OA
ATOM     21  H   UNL d   1     -32.992  -8.379  12.758  0.00  0.00     0.210 HD
ENDBRANCH   3  20
BRANCH   5  22
ATOM     22  O   UNL d   1     -30.812  -6.405  12.561  0.00  0.00    -0.390 OA
ATOM     23  H   UNL d   1     -31.067  -6.940  13.339  0.00  0.00     0.210 HD
ENDBRANCH   5  22
TORSDOF 9
ENDMDL
MODEL 7
REMARK VINA RESULT:      -4.0     16.813     18.611
REMARK  9 active torsions:
REMARK  status: ('A' for Active; 'I' for Inactive)
REMARK    1  A    between atoms: C_2  and  O_1 
REMARK    2  A    between atoms: C_3  and  O_5 
REMARK    3  A    between atoms: C_4  and  O_7 
REMARK    4  A    between atoms: O_5  and  P_9 
REMARK    5  A    between atoms: C_6  and  O_10 
REMARK    6  A    between atoms: O_12  and  C_8 
REMARK    7  A    between atoms: P_9  and  O_14 
REMARK    8  A    between atoms: P_9  and  O_15 
REMARK    9  A    between atoms: C_11  and  O_16 
ROOT
ATOM      1  C   UNL d   1     -31.831  -7.424   9.509  0.00  0.00     0.181 C 
ATOM      2  C   UNL d   1     -31.338  -8.255  10.708  0.00  0.00     0.196 C 
ATOM      3  C   UNL d   1     -33.360  -7.221   9.496  0.00  0.00     0.180 C 
ATOM      4  C   UNL d   1     -32.124  -9.584  10.781  0.00  0.00     0.181 C 
ATOM      5  C   UNL d   1     -34.104  -8.575   9.593  0.00  0.00     0.180 C 
ATOM      6  C   UNL d   1     -33.649  -9.373  10.820  0.00  0.00     0.180 C 
ENDROOT
BRANCH   2   7
ATOM      7  O   UNL d   1     -31.443  -7.490  11.917  0.00  0.00    -0.286 OA
BRANCH   7   8
ATOM      8  P   UNL d   1     -29.914  -7.174  12.662  0.00  0.00     0.391 P 
ATOM      9  O   UNL d   1     -28.545  -6.892  13.328  0.00  0.00    -0.632 OA
BRANCH   8  10
ATOM     10  O   UNL d   1     -30.759  -6.210  13.675  0.00  0.00    -0.307 OA
ATOM     11  H   UNL d   1     -30.915  -5.347  13.254  0.00  0.00     0.222 HD
ENDBRANCH   8  10
BRANCH   8  12
ATOM     12  O   UNL d   1     -30.131  -8.518  13.581  0.00  0.00    -0.307 OA
ATOM     13  H   UNL d   1     -29.492  -8.383  14.318  0.00  0.00     0.222 HD
ENDBRANCH   8  12
ENDBRANCH   7   8
ENDBRANCH   2   7
BRANCH   4  14
ATOM     14  O   UNL d   1     -31.667 -10.343  11.907  0.00  0.00    -0.390 OA
ATOM     15  H   UNL d   1     -32.025 -11.248  11.843  0.00  0.00     0.210 HD
ENDBRANCH   4  14
BRANCH   1  16
ATOM     16  O   UNL d   1     -31.442  -8.086   8.304  0.00  0.00    -0.390 OA
ATOM     17  H   UNL d   1     -30.477  -8.002   8.211  0.00  0.00     0.210 HD
ENDBRANCH   1  16
BRANCH   6  18
ATOM     18  O   UNL d   1     -34.095  -8.650  11.980  0.00  0.00    -0.390 OA
ATOM     19  H   UNL d   1     -35.058  -8.796  12.119  0.00  0.00     0.210 HD
ENDBRANCH   6  18
BRANCH   3  20
ATOM     20  O   UNL d   1     -33.761  -6.331  10.550  0.00  0.00    -0.390 OA
ATOM     21  H   UNL d   1     -33.054  -5.662  10.660  0.00  0.00     0.210 HD
ENDBRANCH   3  20
BRANCH   5  22
ATOM     22  O   UNL d   1     -35.517  -8.359   9.694  0.00  0.00    -0.390 OA
ATOM     23  H   UNL d   1     -35.890  -8.687   8.851  0.00  0.00     0.210 HD
ENDBRANCH   5  22
TORSDOF 9
ENDMDL
MODEL 8
REMARK VINA RESULT:      -3.9     11.019     13.062
REMARK  9 active torsions:
REMARK  status: ('A' for Active; 'I' for Inactive)
REMARK    1  A    between atoms: C_2  and  O_1 
REMARK    2  A    between atoms: C_3  and  O_5 
REMARK    3  A    between atoms: C_4  and  O_7 
REMARK    4  A    between atoms: O_5  and  P_9 
REMARK    5  A    between atoms: C_6  and  O_10 
REMARK    6  A    between atoms: O_12  and  C_8 
REMARK    7  A    between atoms: P_9  and  O_14 
REMARK    8  A    between atoms: P_9  and  O_15 
REMARK    9  A    between atoms: C_11  and  O_16 
ROOT
ATOM      1  C   UNL d   1     -26.168 -15.632  14.301  0.00  0.00     0.181 C 
ATOM      2  C   UNL d   1     -27.144 -14.464  14.072  0.00  0.00     0.196 C 
ATOM      3  C   UNL d   1     -26.465 -16.432  15.586  0.00  0.00     0.180 C 
ATOM      4  C   UNL d   1     -27.201 -13.576  15.337  0.00  0.00     0.181 C 
ATOM      5  C   UNL d   1     -26.535 -15.500  16.820  0.00  0.00     0.180 C 
ATOM      6  C   UNL d   1     -27.550 -14.372  16.608  0.00  0.00     0.180 C 
ENDROOT
BRANCH   2   7
ATOM      7  O   UNL d   1     -28.435 -14.963  13.696  0.00  0.00    -0.286 OA
BRANCH   7   8
ATOM      8  P   UNL d   1     -29.002 -14.329  12.190  0.00  0.00     0.391 P 
ATOM      9  O   UNL d   1     -29.509 -13.761  10.841  0.00  0.00    -0.632 OA
BRANCH   8  10
ATOM     10  O   UNL d   1     -30.012 -13.428  13.105  0.00  0.00    -0.307 OA
ATOM     11  H   UNL d   1     -29.498 -12.805  13.646  0.00  0.00     0.222 HD
ENDBRANCH   8  10
BRANCH   8  12
ATOM     12  O   UNL d   1     -27.788 -13.224  12.246  0.00  0.00    -0.307 OA
ATOM     13  H   UNL d   1     -27.612 -13.045  11.294  0.00  0.00     0.222 HD
ENDBRANCH   8  12
ENDBRANCH   7   8
ENDBRANCH   2   7
BRANCH   4  14
ATOM     14  O   UNL d   1     -28.122 -12.500  15.118  0.00  0.00    -0.390 OA
ATOM     15  H   UNL d   1     -28.710 -12.735  14.375  0.00  0.00     0.210 HD
ENDBRANCH   4  14
BRANCH   1  16
ATOM     16  O   UNL d   1     -24.840 -15.109  14.378  0.00  0.00    -0.390 OA
ATOM     17  H   UNL d   1     -24.852 -14.202  14.025  0.00  0.00     0.210 HD
ENDBRANCH   1  16
BRANCH   6  18
ATOM     18  O   UNL d   1     -28.851 -14.981  16.561  0.00  0.00    -0.390 OA
ATOM     19  H   UNL d   1     -29.536 -14.337  16.853  0.00  0.00     0.210 HD
ENDBRANCH   6  18
BRANCH   3  20
ATOM     20  O   UNL d   1     -27.675 -17.192  15.439  0.00  0.00    -0.390 OA
ATOM     21  H   UNL d   1     -27.507 -17.896  14.780  0.00  0.00     0.210 HD
ENDBRANCH   3  20
BRANCH   5  22
ATOM     22  O   UNL d   1     -26.923 -16.244  17.982  0.00  0.00    -0.390 OA
ATOM     23  H   UNL d   1     -27.876 -16.058  18.103  0.00  0.00     0.210 HD
ENDBRANCH   5  22
TORSDOF 9
ENDMDL
MODEL 9
REMARK VINA RESULT:      -3.8     16.302     18.034
REMARK  9 active torsions:
REMARK  status: ('A' for Active; 'I' for Inactive)
REMARK    1  A    between atoms: C_2  and  O_1 
REMARK    2  A    between atoms: C_3  and  O_5 
REMARK    3  A    between atoms: C_4  and  O_7 
REMARK    4  A    between atoms: O_5  and  P_9 
REMARK    5  A    between atoms: C_6  and  O_10 
REMARK    6  A    between atoms: O_12  and  C_8 
REMARK    7  A    between atoms: P_9  and  O_14 
REMARK    8  A    between atoms: P_9  and  O_15 
REMARK    9  A    between atoms: C_11  and  O_16 
ROOT
ATOM      1  C   UNL d   1     -30.688  -6.279  10.204  0.00  0.00     0.181 C 
ATOM      2  C   UNL d   1     -31.219  -7.004  11.455  0.00  0.00     0.196 C 
ATOM      3  C   UNL d   1     -29.244  -6.677   9.838  0.00  0.00     0.180 C 
ATOM      4  C   UNL d   1     -30.226  -6.820  12.626  0.00  0.00     0.181 C 
ATOM      5  C   UNL d   1     -28.292  -6.497  11.045  0.00  0.00     0.180 C 
ATOM      6  C   UNL d   1     -28.796  -7.268  12.270  0.00  0.00     0.180 C 
ENDROOT
BRANCH   2   7
ATOM      7  O   UNL d   1     -31.467  -8.386  11.159  0.00  0.00    -0.286 OA
BRANCH   7   8
ATOM      8  P   UNL d   1     -33.134  -8.827  11.296  0.00  0.00     0.391 P 
ATOM      9  O   UNL d   1     -34.626  -9.222  11.418  0.00  0.00    -0.632 OA
BRANCH   8  10
ATOM     10  O   UNL d   1     -32.722  -9.391  12.773  0.00  0.00    -0.307 OA
ATOM     11  H   UNL d   1     -31.762  -9.541  12.812  0.00  0.00     0.222 HD
ENDBRANCH   8  10
BRANCH   8  12
ATOM     12  O   UNL d   1     -33.447  -7.310  11.841  0.00  0.00    -0.307 OA
ATOM     13  H   UNL d   1     -33.842  -7.474  12.728  0.00  0.00     0.222 HD
ENDBRANCH   8  12
ENDBRANCH   7   8
ENDBRANCH   2   7
BRANCH   4  14
ATOM     14  O   UNL d   1     -30.724  -7.509  13.780  0.00  0.00    -0.390 OA
ATOM     15  H   UNL d   1     -29.995  -8.017  14.183  0.00  0.00     0.210 HD
ENDBRANCH   4  14
BRANCH   1  16
ATOM     16  O   UNL d   1     -30.736  -4.870  10.439  0.00  0.00    -0.390 OA
ATOM     17  H   UNL d   1     -29.984  -4.633  11.011  0.00  0.00     0.210 HD
ENDBRANCH   1  16
BRANCH   6  18
ATOM     18  O   UNL d   1     -28.698  -8.667  11.956  0.00  0.00    -0.390 OA
ATOM     19  H   UNL d   1     -28.558  -8.787  10.990  0.00  0.00     0.210 HD
ENDBRANCH   6  18
BRANCH   3  20
ATOM     20  O   UNL d   1     -29.201  -8.022   9.337  0.00  0.00    -0.390 OA
ATOM     21  H   UNL d   1     -29.839  -8.554   9.856  0.00  0.00     0.210 HD
ENDBRANCH   3  20
BRANCH   5  22
ATOM     22  O   UNL d   1     -26.981  -6.978  10.719  0.00  0.00    -0.390 OA
ATOM     23  H   UNL d   1     -27.060  -7.358   9.821  0.00  0.00     0.210 HD
ENDBRANCH   5  22
TORSDOF 9
ENDMDL
