MODEL 1
REMARK VINA RESULT:      -4.1      0.000      0.000
REMARK  6 active torsions:
REMARK  status: ('A' for Active; 'I' for Inactive)
REMARK    1  A    between atoms: C_4  and  O_6 
REMARK    2  A    between atoms: C_5  and  O_8 
REMARK    3  A    between atoms: C_7  and  O_9 
REMARK    4  A    between atoms: O_8  and  P_10 
REMARK    5  A    between atoms: P_10  and  O_12 
REMARK    6  A    between atoms: P_10  and  O_13 
ROOT
ATOM      1  C   UNL d   1       1.485  21.384  30.101  0.00  0.00     0.042 C 
ATOM      2  C   UNL d   1       1.484  22.543  31.089  0.00  0.00     0.152 C 
ATOM      3  O   UNL d   1       0.723  23.618  30.487  0.00  0.00    -0.350 OA
ATOM      4  C   UNL d   1       0.796  22.229  32.414  0.00  0.00     0.180 C 
ATOM      5  C   UNL d   1      -0.559  23.727  31.139  0.00  0.00     0.303 C 
ATOM      6  C   UNL d   1      -0.659  22.552  32.113  0.00  0.00     0.205 C 
ENDROOT
BRANCH   5   7
ATOM      7  O   UNL d   1      -0.650  25.005  31.755  0.00  0.00    -0.263 OA
BRANCH   7   8
ATOM      8  P   UNL d   1      -1.954  25.848  30.993  0.00  0.00     0.393 P 
ATOM      9  O   UNL d   1      -3.121  26.603  30.310  0.00  0.00    -0.631 OA
BRANCH   8  10
ATOM     10  O   UNL d   1      -1.785  24.775  29.770  0.00  0.00    -0.307 OA
ATOM     11  H   UNL d   1      -1.001  24.224  29.968  0.00  0.00     0.222 HD
ENDBRANCH   8  10
BRANCH   8  12
ATOM     12  O   UNL d   1      -2.936  24.901  31.886  0.00  0.00    -0.307 OA
ATOM     13  H   UNL d   1      -3.807  24.879  31.436  0.00  0.00     0.222 HD
ENDBRANCH   8  12
ENDBRANCH   7   8
ENDBRANCH   5   7
BRANCH   6  14
ATOM     14  O   UNL d   1      -1.426  22.797  33.283  0.00  0.00    -0.388 OA
ATOM     15  H   UNL d   1      -1.233  22.051  33.886  0.00  0.00     0.210 HD
ENDBRANCH   6  14
BRANCH   4  16
ATOM     16  O   UNL d   1       1.275  23.089  33.459  0.00  0.00    -0.390 OA
ATOM     17  H   UNL d   1       0.604  23.780  33.628  0.00  0.00     0.210 HD
ENDBRANCH   4  16
TORSDOF 6
ENDMDL
MODEL 2
REMARK VINA RESULT:      -4.0     18.241     19.871
REMARK  6 active torsions:
REMARK  status: ('A' for Active; 'I' for Inactive)
REMARK    1  A    between atoms: C_4  and  O_6 
REMARK    2  A    between atoms: C_5  and  O_8 
REMARK    3  A    between atoms: C_7  and  O_9 
REMARK    4  A    between atoms: O_8  and  P_10 
REMARK    5  A    between atoms: P_10  and  O_12 
REMARK    6  A    between atoms: P_10  and  O_13 
ROOT
ATOM      1  C   UNL d   1       6.771   5.082  20.839  0.00  0.00     0.042 C 
ATOM      2  C   UNL d   1       7.385   6.331  21.457  0.00  0.00     0.152 C 
ATOM      3  O   UNL d   1       6.326   7.025  22.161  0.00  0.00    -0.350 OA
ATOM      4  C   UNL d   1       8.464   6.044  22.495  0.00  0.00     0.180 C 
ATOM      5  C   UNL d   1       6.498   6.855  23.582  0.00  0.00     0.303 C 
ATOM      6  C   UNL d   1       7.655   5.873  23.771  0.00  0.00     0.205 C 
ENDROOT
BRANCH   5   7
ATOM      7  O   UNL d   1       6.713   8.131  24.172  0.00  0.00    -0.263 OA
BRANCH   7   8
ATOM      8  P   UNL d   1       5.309   8.503  25.111  0.00  0.00     0.393 P 
ATOM      9  O   UNL d   1       4.052   8.836  25.953  0.00  0.00    -0.631 OA
BRANCH   8  10
ATOM     10  O   UNL d   1       6.109   7.828  26.368  0.00  0.00    -0.307 OA
ATOM     11  H   UNL d   1       6.708   7.145  26.004  0.00  0.00     0.222 HD
ENDBRANCH   8  10
BRANCH   8  12
ATOM     12  O   UNL d   1       5.966   9.984  25.296  0.00  0.00    -0.307 OA
ATOM     13  H   UNL d   1       5.249  10.587  25.581  0.00  0.00     0.222 HD
ENDBRANCH   8  12
ENDBRANCH   7   8
ENDBRANCH   5   7
BRANCH   6  14
ATOM     14  O   UNL d   1       8.427   6.064  24.947  0.00  0.00    -0.388 OA
ATOM     15  H   UNL d   1       8.298   5.255  25.483  0.00  0.00     0.210 HD
ENDBRANCH   6  14
BRANCH   4  16
ATOM     16  O   UNL d   1       9.355   7.162  22.635  0.00  0.00    -0.390 OA
ATOM     17  H   UNL d   1      10.258   6.873  22.400  0.00  0.00     0.210 HD
ENDBRANCH   4  16
TORSDOF 6
ENDMDL
MODEL 3
REMARK VINA RESULT:      -4.0      3.473      5.017
REMARK  6 active torsions:
REMARK  status: ('A' for Active; 'I' for Inactive)
REMARK    1  A    between atoms: C_4  and  O_6 
REMARK    2  A    between atoms: C_5  and  O_8 
REMARK    3  A    between atoms: C_7  and  O_9 
REMARK    4  A    between atoms: O_8  and  P_10 
REMARK    5  A    between atoms: P_10  and  O_12 
REMARK    6  A    between atoms: P_10  and  O_13 
ROOT
ATOM      1  C   UNL d   1       0.878  22.948  28.919  0.00  0.00     0.042 C 
ATOM      2  C   UNL d   1      -0.049  22.643  30.089  0.00  0.00     0.152 C 
ATOM      3  O   UNL d   1       0.142  21.250  30.435  0.00  0.00    -0.350 OA
ATOM      4  C   UNL d   1       0.263  23.439  31.352  0.00  0.00     0.180 C 
ATOM      5  C   UNL d   1       0.891  21.155  31.663  0.00  0.00     0.303 C 
ATOM      6  C   UNL d   1       1.317  22.578  32.030  0.00  0.00     0.205 C 
ENDROOT
BRANCH   5   7
ATOM      7  O   UNL d   1       0.081  20.518  32.643  0.00  0.00    -0.263 OA
BRANCH   7   8
ATOM      8  P   UNL d   1       0.546  18.852  32.685  0.00  0.00     0.393 P 
ATOM      9  O   UNL d   1       0.961  17.360  32.722  0.00  0.00    -0.631 OA
BRANCH   8  10
ATOM     10  O   UNL d   1      -0.706  18.594  31.664  0.00  0.00    -0.307 OA
ATOM     11  H   UNL d   1      -0.340  18.528  30.759  0.00  0.00     0.222 HD
ENDBRANCH   8  10
BRANCH   8  12
ATOM     12  O   UNL d   1       1.613  19.239  31.514  0.00  0.00    -0.307 OA
ATOM     13  H   UNL d   1       2.481  18.868  31.777  0.00  0.00     0.222 HD
ENDBRANCH   8  12
ENDBRANCH   7   8
ENDBRANCH   5   7
BRANCH   6  14
ATOM     14  O   UNL d   1       1.434  22.837  33.421  0.00  0.00    -0.388 OA
ATOM     15  H   UNL d   1       1.471  23.812  33.506  0.00  0.00     0.210 HD
ENDBRANCH   6  14
BRANCH   4  16
ATOM     16  O   UNL d   1      -0.894  23.539  32.196  0.00  0.00    -0.390 OA
ATOM     17  H   UNL d   1      -1.042  24.481  32.414  0.00  0.00     0.210 HD
ENDBRANCH   4  16
TORSDOF 6
ENDMDL
MODEL 4
REMARK VINA RESULT:      -3.9      3.996      5.698
REMARK  6 active torsions:
REMARK  status: ('A' for Active; 'I' for Inactive)
REMARK    1  A    between atoms: C_4  and  O_6 
REMARK    2  A    between atoms: C_5  and  O_8 
REMARK    3  A    between atoms: C_7  and  O_9 
REMARK    4  A    between atoms: O_8  and  P_10 
REMARK    5  A    between atoms: P_10  and  O_12 
REMARK    6  A    between atoms: P_10  and  O_13 
ROOT
ATOM      1  C   UNL d   1      -2.241  21.945  31.526  0.00  0.00     0.042 C 
ATOM      2  C   UNL d   1      -0.780  21.710  31.886  0.00  0.00     0.152 C 
ATOM      3  O   UNL d   1      -0.396  20.438  31.310  0.00  0.00    -0.350 OA
ATOM      4  C   UNL d   1       0.177  22.744  31.302  0.00  0.00     0.180 C 
ATOM      5  C   UNL d   1       0.450  20.661  30.165  0.00  0.00     0.303 C 
ATOM      6  C   UNL d   1       0.478  22.172  29.925  0.00  0.00     0.205 C 
ENDROOT
BRANCH   5   7
ATOM      7  O   UNL d   1       1.726  20.088  30.420  0.00  0.00    -0.263 OA
BRANCH   7   8
ATOM      8  P   UNL d   1       1.494  18.382  30.590  0.00  0.00     0.393 P 
ATOM      9  O   UNL d   1       1.287  16.854  30.742  0.00  0.00    -0.631 OA
BRANCH   8  10
ATOM     10  O   UNL d   1       3.106  18.252  30.344  0.00  0.00    -0.307 OA
ATOM     11  H   UNL d   1       3.427  19.120  30.028  0.00  0.00     0.222 HD
ENDBRANCH   8  10
BRANCH   8  12
ATOM     12  O   UNL d   1       1.610  18.642  32.196  0.00  0.00    -0.307 OA
ATOM     13  H   UNL d   1       0.702  18.609  32.563  0.00  0.00     0.222 HD
ENDBRANCH   8  12
ENDBRANCH   7   8
ENDBRANCH   5   7
BRANCH   6  14
ATOM     14  O   UNL d   1       1.683  22.676  29.367  0.00  0.00    -0.388 OA
ATOM     15  H   UNL d   1       1.494  23.606  29.127  0.00  0.00     0.210 HD
ENDBRANCH   6  14
BRANCH   4  16
ATOM     16  O   UNL d   1       1.389  22.816  32.070  0.00  0.00    -0.390 OA
ATOM     17  H   UNL d   1       2.116  22.428  31.544  0.00  0.00     0.210 HD
ENDBRANCH   4  16
TORSDOF 6
ENDMDL
MODEL 5
REMARK VINA RESULT:      -3.8      8.209      9.452
REMARK  6 active torsions:
REMARK  status: ('A' for Active; 'I' for Inactive)
REMARK    1  A    between atoms: C_4  and  O_6 
REMARK    2  A    between atoms: C_5  and  O_8 
REMARK    3  A    between atoms: C_7  and  O_9 
REMARK    4  A    between atoms: O_8  and  P_10 
REMARK    5  A    between atoms: P_10  and  O_12 
REMARK    6  A    between atoms: P_10  and  O_13 
ROOT
ATOM      1  C   UNL d   1      -0.800  12.323  30.103  0.00  0.00     0.042 C 
ATOM      2  C   UNL d   1       0.470  13.005  29.609  0.00  0.00     0.152 C 
ATOM      3  O   UNL d   1       0.283  14.431  29.776  0.00  0.00    -0.350 OA
ATOM      4  C   UNL d   1       1.718  12.646  30.409  0.00  0.00     0.180 C 
ATOM      5  C   UNL d   1       1.074  14.895  30.889  0.00  0.00     0.303 C 
ATOM      6  C   UNL d   1       1.680  13.654  31.547  0.00  0.00     0.205 C 
ENDROOT
BRANCH   5   7
ATOM      7  O   UNL d   1       2.033  15.829  30.409  0.00  0.00    -0.263 OA
BRANCH   7   8
ATOM      8  P   UNL d   1       1.345  17.406  30.590  0.00  0.00     0.393 P 
ATOM      9  O   UNL d   1       0.730  18.818  30.752  0.00  0.00    -0.631 OA
BRANCH   8  10
ATOM     10  O   UNL d   1       1.831  17.316  32.149  0.00  0.00    -0.307 OA
ATOM     11  H   UNL d   1       2.467  18.044  32.302  0.00  0.00     0.222 HD
ENDBRANCH   8  10
BRANCH   8  12
ATOM     12  O   UNL d   1       2.768  17.966  30.023  0.00  0.00    -0.307 OA
ATOM     13  H   UNL d   1       3.139  18.563  30.706  0.00  0.00     0.222 HD
ENDBRANCH   8  12
ENDBRANCH   7   8
ENDBRANCH   5   7
BRANCH   6  14
ATOM     14  O   UNL d   1       2.948  13.849  32.157  0.00  0.00    -0.388 OA
ATOM     15  H   UNL d   1       3.116  14.813  32.115  0.00  0.00     0.210 HD
ENDBRANCH   6  14
BRANCH   4  16
ATOM     16  O   UNL d   1       2.906  12.845  29.627  0.00  0.00    -0.390 OA
ATOM     17  H   UNL d   1       3.542  13.370  30.152  0.00  0.00     0.210 HD
ENDBRANCH   4  16
TORSDOF 6
ENDMDL
MODEL 6
REMARK VINA RESULT:      -3.7      6.398      8.267
REMARK  6 active torsions:
REMARK  status: ('A' for Active; 'I' for Inactive)
REMARK    1  A    between atoms: C_4  and  O_6 
REMARK    2  A    between atoms: C_5  and  O_8 
REMARK    3  A    between atoms: C_7  and  O_9 
REMARK    4  A    between atoms: O_8  and  P_10 
REMARK    5  A    between atoms: P_10  and  O_12 
REMARK    6  A    between atoms: P_10  and  O_13 
ROOT
ATOM      1  C   UNL d   1      -1.224  18.712  31.184  0.00  0.00     0.042 C 
ATOM      2  C   UNL d   1       0.250  18.743  31.569  0.00  0.00     0.152 C 
ATOM      3  O   UNL d   1       0.318  18.629  33.011  0.00  0.00    -0.350 OA
ATOM      4  C   UNL d   1       1.061  17.577  31.015  0.00  0.00     0.180 C 
ATOM      5  C   UNL d   1       0.774  17.310  33.371  0.00  0.00     0.303 C 
ATOM      6  C   UNL d   1       0.859  16.503  32.074  0.00  0.00     0.205 C 
ENDROOT
BRANCH   5   7
ATOM      7  O   UNL d   1       2.009  17.428  34.066  0.00  0.00    -0.263 OA
BRANCH   7   8
ATOM      8  P   UNL d   1       1.809  16.653  35.600  0.00  0.00     0.393 P 
ATOM      9  O   UNL d   1       1.630  15.959  36.972  0.00  0.00    -0.631 OA
BRANCH   8  10
ATOM     10  O   UNL d   1       2.563  15.369  34.922  0.00  0.00    -0.307 OA
ATOM     11  H   UNL d   1       3.517  15.450  35.119  0.00  0.00     0.222 HD
ENDBRANCH   8  10
BRANCH   8  12
ATOM     12  O   UNL d   1       3.182  17.417  36.036  0.00  0.00    -0.307 OA
ATOM     13  H   UNL d   1       3.717  17.539  35.224  0.00  0.00     0.222 HD
ENDBRANCH   8  12
ENDBRANCH   7   8
ENDBRANCH   5   7
BRANCH   6  14
ATOM     14  O   UNL d   1       1.865  15.501  32.046  0.00  0.00    -0.388 OA
ATOM     15  H   UNL d   1       1.846  15.133  31.140  0.00  0.00     0.210 HD
ENDBRANCH   6  14
BRANCH   4  16
ATOM     16  O   UNL d   1       2.454  17.913  30.928  0.00  0.00    -0.390 OA
ATOM     17  H   UNL d   1       2.636  18.264  30.034  0.00  0.00     0.210 HD
ENDBRANCH   4  16
TORSDOF 6
ENDMDL
MODEL 7
REMARK VINA RESULT:      -3.6     10.360     11.891
REMARK  6 active torsions:
REMARK  status: ('A' for Active; 'I' for Inactive)
REMARK    1  A    between atoms: C_4  and  O_6 
REMARK    2  A    between atoms: C_5  and  O_8 
REMARK    3  A    between atoms: C_7  and  O_9 
REMARK    4  A    between atoms: O_8  and  P_10 
REMARK    5  A    between atoms: P_10  and  O_12 
REMARK    6  A    between atoms: P_10  and  O_13 
ROOT
ATOM      1  C   UNL d   1       0.567  17.478  20.385  0.00  0.00     0.042 C 
ATOM      2  C   UNL d   1       1.365  18.419  21.278  0.00  0.00     0.152 C 
ATOM      3  O   UNL d   1       2.411  18.999  20.461  0.00  0.00    -0.350 OA
ATOM      4  C   UNL d   1       0.557  19.591  21.824  0.00  0.00     0.180 C 
ATOM      5  C   UNL d   1       2.088  20.373  20.166  0.00  0.00     0.303 C 
ATOM      6  C   UNL d   1       0.681  20.622  20.713  0.00  0.00     0.205 C 
ENDROOT
BRANCH   5   7
ATOM      7  O   UNL d   1       3.090  21.208  20.730  0.00  0.00    -0.263 OA
BRANCH   7   8
ATOM      8  P   UNL d   1       4.459  20.207  21.072  0.00  0.00     0.393 P 
ATOM      9  O   UNL d   1       5.684  19.310  21.378  0.00  0.00    -0.631 OA
BRANCH   8  10
ATOM     10  O   UNL d   1       5.358  21.555  20.853  0.00  0.00    -0.307 OA
ATOM     11  H   UNL d   1       4.953  22.270  21.384  0.00  0.00     0.222 HD
ENDBRANCH   8  10
BRANCH   8  12
ATOM     12  O   UNL d   1       4.136  20.499  22.643  0.00  0.00    -0.307 OA
ATOM     13  H   UNL d   1       3.717  21.384  22.695  0.00  0.00     0.222 HD
ENDBRANCH   8  12
ENDBRANCH   7   8
ENDBRANCH   5   7
BRANCH   6  14
ATOM     14  O   UNL d   1       0.429  21.947  21.156  0.00  0.00    -0.388 OA
ATOM     15  H   UNL d   1       1.184  22.182  21.733  0.00  0.00     0.210 HD
ENDBRANCH   6  14
BRANCH   4  16
ATOM     16  O   UNL d   1       1.146  20.106  23.029  0.00  0.00    -0.390 OA
ATOM     17  H   UNL d   1       1.353  19.356  23.621  0.00  0.00     0.210 HD
ENDBRANCH   4  16
TORSDOF 6
ENDMDL
MODEL 8
REMARK VINA RESULT:      -3.5     11.663     13.605
REMARK  6 active torsions:
REMARK  status: ('A' for Active; 'I' for Inactive)
REMARK    1  A    between atoms: C_4  and  O_6 
REMARK    2  A    between atoms: C_5  and  O_8 
REMARK    3  A    between atoms: C_7  and  O_9 
REMARK    4  A    between atoms: O_8  and  P_10 
REMARK    5  A    between atoms: P_10  and  O_12 
REMARK    6  A    between atoms: P_10  and  O_13 
ROOT
ATOM      1  C   UNL d   1       1.393  19.213  20.340  0.00  0.00     0.042 C 
ATOM      2  C   UNL d   1       2.556  19.171  21.323  0.00  0.00     0.152 C 
ATOM      3  O   UNL d   1       3.604  18.379  20.713  0.00  0.00    -0.350 OA
ATOM      4  C   UNL d   1       3.173  20.535  21.613  0.00  0.00     0.180 C 
ATOM      5  C   UNL d   1       4.670  19.244  20.273  0.00  0.00     0.303 C 
ATOM      6  C   UNL d   1       4.191  20.680  20.493  0.00  0.00     0.205 C 
ENDROOT
BRANCH   5   7
ATOM      7  O   UNL d   1       5.854  18.908  20.985  0.00  0.00    -0.263 OA
BRANCH   7   8
ATOM      8  P   UNL d   1       6.813  17.915  19.943  0.00  0.00     0.393 P 
ATOM      9  O   UNL d   1       7.672  17.026  19.010  0.00  0.00    -0.631 OA
BRANCH   8  10
ATOM     10  O   UNL d   1       8.102  18.716  20.552  0.00  0.00    -0.307 OA
ATOM     11  H   UNL d   1       8.571  19.133  19.802  0.00  0.00     0.222 HD
ENDBRANCH   8  10
BRANCH   8  12
ATOM     12  O   UNL d   1       6.752  16.804  21.136  0.00  0.00    -0.307 OA
ATOM     13  H   UNL d   1       7.486  17.002  21.755  0.00  0.00     0.222 HD
ENDBRANCH   8  12
ENDBRANCH   7   8
ENDBRANCH   5   7
BRANCH   6  14
ATOM     14  O   UNL d   1       5.212  21.621  20.790  0.00  0.00    -0.388 OA
ATOM     15  H   UNL d   1       4.994  22.421  20.269  0.00  0.00     0.210 HD
ENDBRANCH   6  14
BRANCH   4  16
ATOM     16  O   UNL d   1       3.846  20.537  22.881  0.00  0.00    -0.390 OA
ATOM     17  H   UNL d   1       3.296  20.054  23.528  0.00  0.00     0.210 HD
ENDBRANCH   4  16
TORSDOF 6
ENDMDL
MODEL 9
REMARK VINA RESULT:      -3.3     11.470     12.968
REMARK  6 active torsions:
REMARK  status: ('A' for Active; 'I' for Inactive)
REMARK    1  A    between atoms: C_4  and  O_6 
REMARK    2  A    between atoms: C_5  and  O_8 
REMARK    3  A    between atoms: C_7  and  O_9 
REMARK    4  A    between atoms: O_8  and  P_10 
REMARK    5  A    between atoms: P_10  and  O_12 
REMARK    6  A    between atoms: P_10  and  O_13 
ROOT
ATOM      1  C   UNL d   1      -0.649  14.390  31.454  0.00  0.00     0.042 C 
ATOM      2  C   UNL d   1       0.575  13.833  32.169  0.00  0.00     0.152 C 
ATOM      3  O   UNL d   1       0.284  12.455  32.507  0.00  0.00    -0.350 OA
ATOM      4  C   UNL d   1       1.835  13.801  31.311  0.00  0.00     0.180 C 
ATOM      5  C   UNL d   1       1.025  11.577  31.635  0.00  0.00     0.303 C 
ATOM      6  C   UNL d   1       1.710  12.465  30.594  0.00  0.00     0.205 C 
ENDROOT
BRANCH   5   7
ATOM      7  O   UNL d   1       1.920  10.802  32.421  0.00  0.00    -0.263 OA
BRANCH   7   8
ATOM      8  P   UNL d   1       1.211   9.235  32.609  0.00  0.00     0.393 P 
ATOM      9  O   UNL d   1       0.576   7.833  32.778  0.00  0.00    -0.631 OA
BRANCH   8  10
ATOM     10  O   UNL d   1       0.517   9.836  33.962  0.00  0.00    -0.307 OA
ATOM     11  H   UNL d   1       0.123  10.702  33.733  0.00  0.00     0.222 HD
ENDBRANCH   8  10
BRANCH   8  12
ATOM     12  O   UNL d   1       0.048   9.767  31.598  0.00  0.00    -0.307 OA
ATOM     13  H   UNL d   1       0.279   9.456  30.698  0.00  0.00     0.222 HD
ENDBRANCH   8  12
ENDBRANCH   7   8
ENDBRANCH   5   7
BRANCH   6  14
ATOM     14  O   UNL d   1       2.951  11.980  30.105  0.00  0.00    -0.388 OA
ATOM     15  H   UNL d   1       2.841  11.901  29.136  0.00  0.00     0.210 HD
ENDBRANCH   6  14
BRANCH   4  16
ATOM     16  O   UNL d   1       3.016  13.801  32.128  0.00  0.00    -0.390 OA
ATOM     17  H   UNL d   1       3.143  14.699  32.494  0.00  0.00     0.210 HD
ENDBRANCH   4  16
TORSDOF 6
ENDMDL
