MODEL 1
REMARK VINA RESULT:      -9.0      0.000      0.000
REMARK  5 active torsions:
REMARK  status: ('A' for Active; 'I' for Inactive)
REMARK    1  A    between atoms: C_2  and  O_1 
REMARK    2  A    between atoms: C_3  and  C_2 
REMARK    3  A    between atoms: C_4  and  C_3 
REMARK    4  A    between atoms: C_4  and  O_6 
REMARK    5  A    between atoms: C_24  and  O_25 
ROOT
ATOM      1  C   UNL d   1      23.401   3.039 -15.915  0.00  0.00     0.128 C 
ATOM      2  C   UNL d   1      23.456   1.942 -17.016  0.00  0.00     0.047 C 
ATOM      3  C   UNL d   1      22.505   4.049 -16.770  0.00  0.00    -0.002 C 
ATOM      4  C   UNL d   1      23.938   2.715 -18.249  0.00  0.00     0.009 C 
ATOM      5  C   UNL d   1      21.075   3.381 -16.561  0.00  0.00     0.019 C 
ATOM      6  C   UNL d   1      22.191   5.563 -16.592  0.00  0.00     0.013 C 
ATOM      7  C   UNL d   1      23.202   4.050 -18.144  0.00  0.00     0.002 C 
ATOM      8  C   UNL d   1      21.131   6.034 -17.676  0.00  0.00     0.007 C 
ATOM      9  C   UNL d   1      22.232   4.319 -19.272  0.00  0.00    -0.001 C 
ATOM     10  C   UNL d   1      21.361   5.620 -19.204  0.00  0.00     0.003 C 
ATOM     11  C   UNL d   1      22.927   4.330 -20.632  0.00  0.00     0.033 C 
ATOM     12  C   UNL d   1      20.063   5.336 -20.239  0.00  0.00    -0.017 C 
ATOM     13  C   UNL d   1      21.849   4.063 -21.605  0.00  0.00    -0.023 C 
ATOM     14  C   UNL d   1      18.878   5.115 -19.247  0.00  0.00     0.020 C 
ATOM     15  C   UNL d   1      19.471   6.450 -21.180  0.00  0.00     0.016 C 
ATOM     16  C   UNL d   1      20.536   4.338 -21.407  0.00  0.00    -0.072 C 
ATOM     17  C   UNL d   1      18.240   5.848 -21.966  0.00  0.00     0.033 C 
ATOM     18  C   UNL d   1      19.666   3.862 -22.527  0.00  0.00     0.066 C 
ATOM     19  C   UNL d   1      18.645   4.857 -23.045  0.00  0.00     0.122 C 
ENDROOT
BRANCH   1  20
ATOM     20  O   UNL d   1      24.898   2.803 -15.855  0.00  0.00    -0.381 OA
ATOM     21  H   UNL d   1      25.178   3.140 -14.966  0.00  0.00     0.211 HD
ENDBRANCH   1  20
BRANCH   1  22
ATOM     22  C   UNL d   1      23.904   3.947 -14.781  0.00  0.00     0.184 C 
ATOM     23  O   UNL d   1      25.005   4.511 -14.865  0.00  0.00    -0.292 OA
BRANCH  22  24
ATOM     24  C   UNL d   1      23.036   4.136 -13.485  0.00  0.00     0.245 C 
BRANCH  24  25
ATOM     25  O   UNL d   1      23.718   4.893 -12.501  0.00  0.00    -0.393 OA
ATOM     26  H   UNL d   1      24.160   4.229 -11.937  0.00  0.00     0.209 HD
ENDBRANCH  24  25
ENDBRANCH  22  24
ENDBRANCH   1  22
BRANCH  19  27
ATOM     27  O   UNL d   1      17.500   4.142 -23.527  0.00  0.00    -0.395 OA
ATOM     28  H   UNL d   1      17.081   3.701 -22.764  0.00  0.00     0.210 HD
ENDBRANCH  19  27
TORSDOF 5
ENDMDL
MODEL 2
REMARK VINA RESULT:      -8.0      1.386      7.663
REMARK  5 active torsions:
REMARK  status: ('A' for Active; 'I' for Inactive)
REMARK    1  A    between atoms: C_2  and  O_1 
REMARK    2  A    between atoms: C_3  and  C_2 
REMARK    3  A    between atoms: C_4  and  C_3 
REMARK    4  A    between atoms: C_4  and  O_6 
REMARK    5  A    between atoms: C_24  and  O_25 
ROOT
ATOM      1  C   UNL d   1      17.699   4.651 -22.291  0.00  0.00     0.128 C 
ATOM      2  C   UNL d   1      17.283   5.283 -20.932  0.00  0.00     0.047 C 
ATOM      3  C   UNL d   1      19.152   4.206 -21.798  0.00  0.00    -0.002 C 
ATOM      4  C   UNL d   1      18.440   6.241 -20.629  0.00  0.00     0.009 C 
ATOM      5  C   UNL d   1      18.769   2.888 -20.991  0.00  0.00     0.019 C 
ATOM      6  C   UNL d   1      20.421   3.756 -22.581  0.00  0.00     0.013 C 
ATOM      7  C   UNL d   1      19.676   5.466 -21.084  0.00  0.00     0.002 C 
ATOM      8  C   UNL d   1      21.558   3.306 -21.569  0.00  0.00     0.007 C 
ATOM      9  C   UNL d   1      20.644   5.127 -19.973  0.00  0.00    -0.001 C 
ATOM     10  C   UNL d   1      21.895   4.252 -20.324  0.00  0.00     0.003 C 
ATOM     11  C   UNL d   1      21.169   6.379 -19.272  0.00  0.00     0.033 C 
ATOM     12  C   UNL d   1      22.413   3.614 -18.853  0.00  0.00    -0.017 C 
ATOM     13  C   UNL d   1      21.627   5.904 -17.951  0.00  0.00    -0.023 C 
ATOM     14  C   UNL d   1      21.984   2.116 -18.962  0.00  0.00     0.020 C 
ATOM     15  C   UNL d   1      23.936   3.470 -18.481  0.00  0.00     0.016 C 
ATOM     16  C   UNL d   1      22.029   4.638 -17.675  0.00  0.00    -0.072 C 
ATOM     17  C   UNL d   1      24.048   2.792 -17.059  0.00  0.00     0.033 C 
ATOM     18  C   UNL d   1      22.338   4.428 -16.228  0.00  0.00     0.066 C 
ATOM     19  C   UNL d   1      23.642   3.715 -15.922  0.00  0.00     0.122 C 
ENDROOT
BRANCH   1  20
ATOM     20  O   UNL d   1      17.168   5.955 -22.857  0.00  0.00    -0.381 OA
ATOM     21  H   UNL d   1      17.611   6.055 -23.738  0.00  0.00     0.211 HD
ENDBRANCH   1  20
BRANCH   1  22
ATOM     22  C   UNL d   1      17.825   4.507 -23.817  0.00  0.00     0.184 C 
ATOM     23  O   UNL d   1      17.974   3.390 -24.335  0.00  0.00    -0.292 OA
BRANCH  22  24
ATOM     24  C   UNL d   1      17.802   5.785 -24.729  0.00  0.00     0.245 C 
BRANCH  24  25
ATOM     25  O   UNL d   1      19.052   6.451 -24.735  0.00  0.00    -0.393 OA
ATOM     26  H   UNL d   1      19.616   5.928 -24.131  0.00  0.00     0.209 HD
ENDBRANCH  24  25
ENDBRANCH  22  24
ENDBRANCH   1  22
BRANCH  19  27
ATOM     27  O   UNL d   1      23.494   2.975 -14.702  0.00  0.00    -0.395 OA
ATOM     28  H   UNL d   1      23.201   2.074 -14.934  0.00  0.00     0.210 HD
ENDBRANCH  19  27
TORSDOF 5
ENDMDL
MODEL 3
REMARK VINA RESULT:      -7.9      1.959      3.120
REMARK  5 active torsions:
REMARK  status: ('A' for Active; 'I' for Inactive)
REMARK    1  A    between atoms: C_2  and  O_1 
REMARK    2  A    between atoms: C_3  and  C_2 
REMARK    3  A    between atoms: C_4  and  C_3 
REMARK    4  A    between atoms: C_4  and  O_6 
REMARK    5  A    between atoms: C_24  and  O_25 
ROOT
ATOM      1  C   UNL d   1      22.368   2.973 -18.260  0.00  0.00     0.128 C 
ATOM      2  C   UNL d   1      22.672   3.325 -19.744  0.00  0.00     0.047 C 
ATOM      3  C   UNL d   1      20.843   3.444 -18.314  0.00  0.00    -0.002 C 
ATOM      4  C   UNL d   1      22.206   4.781 -19.855  0.00  0.00     0.009 C 
ATOM      5  C   UNL d   1      20.196   2.178 -19.032  0.00  0.00     0.019 C 
ATOM      6  C   UNL d   1      19.810   3.748 -17.190  0.00  0.00     0.013 C 
ATOM      7  C   UNL d   1      20.929   4.813 -19.016  0.00  0.00     0.002 C 
ATOM      8  C   UNL d   1      18.388   4.062 -17.821  0.00  0.00     0.007 C 
ATOM      9  C   UNL d   1      19.674   5.129 -19.798  0.00  0.00    -0.001 C 
ATOM     10  C   UNL d   1      18.303   5.092 -19.043  0.00  0.00     0.003 C 
ATOM     11  C   UNL d   1      19.759   6.491 -20.485  0.00  0.00     0.033 C 
ATOM     12  C   UNL d   1      17.139   4.925 -20.249  0.00  0.00    -0.017 C 
ATOM     13  C   UNL d   1      18.773   6.418 -21.583  0.00  0.00    -0.023 C 
ATOM     14  C   UNL d   1      16.682   3.442 -20.078  0.00  0.00     0.020 C 
ATOM     15  C   UNL d   1      15.758   5.678 -20.205  0.00  0.00     0.016 C 
ATOM     16  C   UNL d   1      17.683   5.611 -21.598  0.00  0.00    -0.072 C 
ATOM     17  C   UNL d   1      14.906   5.248 -21.464  0.00  0.00     0.033 C 
ATOM     18  C   UNL d   1      16.926   5.679 -22.885  0.00  0.00     0.066 C 
ATOM     19  C   UNL d   1      15.422   5.836 -22.766  0.00  0.00     0.122 C 
ENDROOT
BRANCH   1  20
ATOM     20  O   UNL d   1      23.661   3.725 -18.003  0.00  0.00    -0.381 OA
ATOM     21  H   UNL d   1      23.758   4.343 -18.773  0.00  0.00     0.211 HD
ENDBRANCH   1  20
BRANCH   1  22
ATOM     22  C   UNL d   1      22.608   2.853 -16.746  0.00  0.00     0.184 C 
ATOM     23  O   UNL d   1      22.303   1.815 -16.139  0.00  0.00    -0.292 OA
BRANCH  22  24
ATOM     24  C   UNL d   1      23.211   4.065 -15.949  0.00  0.00     0.245 C 
BRANCH  24  25
ATOM     25  O   UNL d   1      24.207   3.649 -15.033  0.00  0.00    -0.393 OA
ATOM     26  H   UNL d   1      23.786   2.938 -14.512  0.00  0.00     0.209 HD
ENDBRANCH  24  25
ENDBRANCH  22  24
ENDBRANCH   1  22
BRANCH  19  27
ATOM     27  O   UNL d   1      14.796   5.200 -23.888  0.00  0.00    -0.395 OA
ATOM     28  H   UNL d   1      14.737   5.856 -24.608  0.00  0.00     0.210 HD
ENDBRANCH  19  27
TORSDOF 5
ENDMDL
MODEL 4
REMARK VINA RESULT:      -7.7      2.824      8.777
REMARK  5 active torsions:
REMARK  status: ('A' for Active; 'I' for Inactive)
REMARK    1  A    between atoms: C_2  and  O_1 
REMARK    2  A    between atoms: C_3  and  C_2 
REMARK    3  A    between atoms: C_4  and  C_3 
REMARK    4  A    between atoms: C_4  and  O_6 
REMARK    5  A    between atoms: C_24  and  O_25 
ROOT
ATOM      1  C   UNL d   1      14.723   4.192 -22.455  0.00  0.00     0.128 C 
ATOM      2  C   UNL d   1      14.914   5.258 -21.337  0.00  0.00     0.047 C 
ATOM      3  C   UNL d   1      16.265   3.782 -22.521  0.00  0.00    -0.002 C 
ATOM      4  C   UNL d   1      16.035   6.142 -21.893  0.00  0.00     0.009 C 
ATOM      5  C   UNL d   1      16.345   2.830 -21.247  0.00  0.00     0.019 C 
ATOM      6  C   UNL d   1      17.083   2.985 -23.579  0.00  0.00     0.013 C 
ATOM      7  C   UNL d   1      16.984   5.144 -22.556  0.00  0.00     0.002 C 
ATOM      8  C   UNL d   1      18.570   2.764 -23.071  0.00  0.00     0.007 C 
ATOM      9  C   UNL d   1      18.358   5.077 -21.928  0.00  0.00    -0.001 C 
ATOM     10  C   UNL d   1      19.371   4.016 -22.477  0.00  0.00     0.003 C 
ATOM     11  C   UNL d   1      19.072   6.426 -21.972  0.00  0.00     0.033 C 
ATOM     12  C   UNL d   1      20.515   3.823 -21.255  0.00  0.00    -0.017 C 
ATOM     13  C   UNL d   1      20.088   6.348 -20.903  0.00  0.00    -0.023 C 
ATOM     14  C   UNL d   1      20.159   2.419 -20.673  0.00  0.00     0.020 C 
ATOM     15  C   UNL d   1      22.050   3.652 -21.551  0.00  0.00     0.016 C 
ATOM     16  C   UNL d   1      20.635   5.199 -20.432  0.00  0.00    -0.072 C 
ATOM     17  C   UNL d   1      22.811   3.449 -20.181  0.00  0.00     0.033 C 
ATOM     18  C   UNL d   1      21.559   5.425 -19.279  0.00  0.00     0.066 C 
ATOM     19  C   UNL d   1      22.899   4.718 -19.351  0.00  0.00     0.122 C 
ENDROOT
BRANCH   1  20
ATOM     20  O   UNL d   1      13.931   5.298 -23.127  0.00  0.00    -0.381 OA
ATOM     21  H   UNL d   1      13.100   5.384 -22.592  0.00  0.00     0.211 HD
ENDBRANCH   1  20
BRANCH   1  22
ATOM     22  C   UNL d   1      14.173   3.564 -23.745  0.00  0.00     0.184 C 
ATOM     23  O   UNL d   1      13.716   2.411 -23.741  0.00  0.00    -0.292 OA
BRANCH  22  24
ATOM     24  C   UNL d   1      14.221   4.370 -25.092  0.00  0.00     0.245 C 
BRANCH  24  25
ATOM     25  O   UNL d   1      12.966   4.374 -25.748  0.00  0.00    -0.393 OA
ATOM     26  H   UNL d   1      12.807   3.440 -25.989  0.00  0.00     0.209 HD
ENDBRANCH  24  25
ENDBRANCH  22  24
ENDBRANCH   1  22
BRANCH  19  27
ATOM     27  O   UNL d   1      23.340   4.418 -18.020  0.00  0.00    -0.395 OA
ATOM     28  H   UNL d   1      22.921   5.059 -17.415  0.00  0.00     0.210 HD
ENDBRANCH  19  27
TORSDOF 5
ENDMDL
MODEL 5
REMARK VINA RESULT:      -7.5      3.853      6.832
REMARK  5 active torsions:
REMARK  status: ('A' for Active; 'I' for Inactive)
REMARK    1  A    between atoms: C_2  and  O_1 
REMARK    2  A    between atoms: C_3  and  C_2 
REMARK    3  A    between atoms: C_4  and  C_3 
REMARK    4  A    between atoms: C_4  and  O_6 
REMARK    5  A    between atoms: C_24  and  O_25 
ROOT
ATOM      1  C   UNL d   1      20.040   5.252 -21.156  0.00  0.00     0.128 C 
ATOM      2  C   UNL d   1      19.311   6.615 -21.337  0.00  0.00     0.047 C 
ATOM      3  C   UNL d   1      18.818   4.369 -21.686  0.00  0.00    -0.002 C 
ATOM      4  C   UNL d   1      17.991   6.401 -20.587  0.00  0.00     0.009 C 
ATOM      5  C   UNL d   1      19.002   4.571 -23.254  0.00  0.00     0.019 C 
ATOM      6  C   UNL d   1      18.518   2.845 -21.582  0.00  0.00     0.013 C 
ATOM      7  C   UNL d   1      17.612   4.962 -20.932  0.00  0.00     0.002 C 
ATOM      8  C   UNL d   1      17.207   2.488 -22.403  0.00  0.00     0.007 C 
ATOM      9  C   UNL d   1      16.329   4.825 -21.720  0.00  0.00    -0.001 C 
ATOM     10  C   UNL d   1      15.905   3.396 -22.203  0.00  0.00     0.003 C 
ATOM     11  C   UNL d   1      15.133   5.404 -20.967  0.00  0.00     0.033 C 
ATOM     12  C   UNL d   1      14.819   3.660 -23.463  0.00  0.00    -0.017 C 
ATOM     13  C   UNL d   1      14.132   5.687 -22.015  0.00  0.00    -0.023 C 
ATOM     14  C   UNL d   1      15.656   3.269 -24.722  0.00  0.00     0.020 C 
ATOM     15  C   UNL d   1      13.529   2.782 -23.668  0.00  0.00     0.016 C 
ATOM     16  C   UNL d   1      14.058   5.054 -23.212  0.00  0.00    -0.072 C 
ATOM     17  C   UNL d   1      12.779   3.278 -24.966  0.00  0.00     0.033 C 
ATOM     18  C   UNL d   1      13.006   5.624 -24.108  0.00  0.00     0.066 C 
ATOM     19  C   UNL d   1      12.090   4.620 -24.783  0.00  0.00     0.122 C 
ENDROOT
BRANCH   1  20
ATOM     20  O   UNL d   1      20.375   5.816 -19.787  0.00  0.00    -0.381 OA
ATOM     21  H   UNL d   1      19.838   5.281 -19.148  0.00  0.00     0.211 HD
ENDBRANCH   1  20
BRANCH   1  22
ATOM     22  C   UNL d   1      20.933   4.191 -20.493  0.00  0.00     0.184 C 
ATOM     23  O   UNL d   1      21.780   3.575 -21.156  0.00  0.00    -0.292 OA
BRANCH  22  24
ATOM     24  C   UNL d   1      20.750   3.853 -18.970  0.00  0.00     0.245 C 
BRANCH  24  25
ATOM     25  O   UNL d   1      21.958   4.010 -18.247  0.00  0.00    -0.393 OA
ATOM     26  H   UNL d   1      21.681   4.095 -17.314  0.00  0.00     0.209 HD
ENDBRANCH  24  25
ENDBRANCH  22  24
ENDBRANCH   1  22
BRANCH  19  27
ATOM     27  O   UNL d   1      11.672   5.147 -26.049  0.00  0.00    -0.395 OA
ATOM     28  H   UNL d   1      10.721   4.954 -26.153  0.00  0.00     0.210 HD
ENDBRANCH  19  27
TORSDOF 5
ENDMDL
MODEL 6
REMARK VINA RESULT:      -7.2      3.053      8.989
REMARK  5 active torsions:
REMARK  status: ('A' for Active; 'I' for Inactive)
REMARK    1  A    between atoms: C_2  and  O_1 
REMARK    2  A    between atoms: C_3  and  C_2 
REMARK    3  A    between atoms: C_4  and  C_3 
REMARK    4  A    between atoms: C_4  and  O_6 
REMARK    5  A    between atoms: C_24  and  O_25 
ROOT
ATOM      1  C   UNL d   1      14.683   5.100 -23.471  0.00  0.00     0.128 C 
ATOM      2  C   UNL d   1      15.613   6.342 -23.587  0.00  0.00     0.047 C 
ATOM      3  C   UNL d   1      15.591   4.347 -22.393  0.00  0.00    -0.002 C 
ATOM      4  C   UNL d   1      16.984   5.719 -23.874  0.00  0.00     0.009 C 
ATOM      5  C   UNL d   1      15.158   5.136 -21.079  0.00  0.00     0.019 C 
ATOM      6  C   UNL d   1      15.607   2.870 -21.900  0.00  0.00     0.013 C 
ATOM      7  C   UNL d   1      17.008   4.478 -22.983  0.00  0.00     0.002 C 
ATOM      8  C   UNL d   1      16.647   2.700 -20.713  0.00  0.00     0.007 C 
ATOM      9  C   UNL d   1      18.070   4.502 -21.907  0.00  0.00    -0.001 C 
ATOM     10  C   UNL d   1      18.113   3.318 -20.883  0.00  0.00     0.003 C 
ATOM     11  C   UNL d   1      19.475   4.623 -22.495  0.00  0.00     0.033 C 
ATOM     12  C   UNL d   1      18.974   3.908 -19.561  0.00  0.00    -0.017 C 
ATOM     13  C   UNL d   1      20.297   5.162 -21.392  0.00  0.00    -0.023 C 
ATOM     14  C   UNL d   1      17.856   4.108 -18.489  0.00  0.00     0.020 C 
ATOM     15  C   UNL d   1      20.009   3.031 -18.764  0.00  0.00     0.016 C 
ATOM     16  C   UNL d   1      20.022   5.014 -20.072  0.00  0.00    -0.072 C 
ATOM     17  C   UNL d   1      20.584   3.887 -17.567  0.00  0.00     0.033 C 
ATOM     18  C   UNL d   1      20.977   5.756 -19.193  0.00  0.00     0.066 C 
ATOM     19  C   UNL d   1      21.539   4.979 -18.017  0.00  0.00     0.122 C 
ENDROOT
BRANCH   1  20
ATOM     20  O   UNL d   1      14.726   5.148 -24.987  0.00  0.00    -0.381 OA
ATOM     21  H   UNL d   1      13.783   5.044 -25.276  0.00  0.00     0.211 HD
ENDBRANCH   1  20
BRANCH   1  22
ATOM     22  C   UNL d   1      13.744   3.975 -23.934  0.00  0.00     0.184 C 
ATOM     23  O   UNL d   1      12.649   3.798 -23.379  0.00  0.00    -0.292 OA
BRANCH  22  24
ATOM     24  C   UNL d   1      14.185   3.014 -25.095  0.00  0.00     0.245 C 
BRANCH  24  25
ATOM     25  O   UNL d   1      13.112   2.722 -25.972  0.00  0.00    -0.393 OA
ATOM     26  H   UNL d   1      12.773   3.595 -26.252  0.00  0.00     0.209 HD
ENDBRANCH  24  25
ENDBRANCH  22  24
ENDBRANCH   1  22
BRANCH  19  27
ATOM     27  O   UNL d   1      21.806   5.889 -16.941  0.00  0.00    -0.395 OA
ATOM     28  H   UNL d   1      21.537   5.455 -16.110  0.00  0.00     0.210 HD
ENDBRANCH  19  27
TORSDOF 5
ENDMDL
MODEL 7
REMARK VINA RESULT:      -6.9     38.793     40.721
REMARK  5 active torsions:
REMARK  status: ('A' for Active; 'I' for Inactive)
REMARK    1  A    between atoms: C_2  and  O_1 
REMARK    2  A    between atoms: C_3  and  C_2 
REMARK    3  A    between atoms: C_4  and  C_3 
REMARK    4  A    between atoms: C_4  and  O_6 
REMARK    5  A    between atoms: C_24  and  O_25 
ROOT
ATOM      1  C   UNL d   1      25.638   0.629  22.692  0.00  0.00     0.128 C 
ATOM      2  C   UNL d   1      24.382   0.308  21.831  0.00  0.00     0.047 C 
ATOM      3  C   UNL d   1      25.352   2.199  22.775  0.00  0.00    -0.002 C 
ATOM      4  C   UNL d   1      24.510   1.287  20.659  0.00  0.00     0.009 C 
ATOM      5  C   UNL d   1      24.234   2.208  23.908  0.00  0.00     0.019 C 
ATOM      6  C   UNL d   1      26.254   3.397  23.192  0.00  0.00     0.013 C 
ATOM      7  C   UNL d   1      25.024   2.567  21.315  0.00  0.00     0.002 C 
ATOM      8  C   UNL d   1      25.408   4.741  23.206  0.00  0.00     0.007 C 
ATOM      9  C   UNL d   1      24.074   3.741  21.227  0.00  0.00    -0.001 C 
ATOM     10  C   UNL d   1      24.472   5.071  21.952  0.00  0.00     0.003 C 
ATOM     11  C   UNL d   1      23.759   4.110  19.779  0.00  0.00     0.033 C 
ATOM     12  C   UNL d   1      23.029   5.921  22.136  0.00  0.00    -0.017 C 
ATOM     13  C   UNL d   1      22.481   4.848  19.850  0.00  0.00    -0.023 C 
ATOM     14  C   UNL d   1      22.745   5.782  23.665  0.00  0.00     0.020 C 
ATOM     15  C   UNL d   1      22.935   7.480  21.948  0.00  0.00     0.016 C 
ATOM     16  C   UNL d   1      22.035   5.527  20.936  0.00  0.00    -0.072 C 
ATOM     17  C   UNL d   1      21.452   7.938  22.244  0.00  0.00     0.033 C 
ATOM     18  C   UNL d   1      20.661   6.088  20.748  0.00  0.00     0.066 C 
ATOM     19  C   UNL d   1      20.472   7.536  21.155  0.00  0.00     0.122 C 
ENDROOT
BRANCH   1  20
ATOM     20  O   UNL d   1      26.346  -0.227  21.658  0.00  0.00    -0.381 OA
ATOM     21  H   UNL d   1      26.883  -0.875  22.182  0.00  0.00     0.211 HD
ENDBRANCH   1  20
BRANCH   1  22
ATOM     22  C   UNL d   1      27.096   0.548  23.171  0.00  0.00     0.184 C 
ATOM     23  O   UNL d   1      27.373   0.657  24.374  0.00  0.00    -0.292 OA
BRANCH  22  24
ATOM     24  C   UNL d   1      28.254   0.361  22.126  0.00  0.00     0.245 C 
BRANCH  24  25
ATOM     25  O   UNL d   1      28.663   1.597  21.567  0.00  0.00    -0.393 OA
ATOM     26  H   UNL d   1      29.583   1.447  21.275  0.00  0.00     0.209 HD
ENDBRANCH  24  25
ENDBRANCH  22  24
ENDBRANCH   1  22
BRANCH  19  27
ATOM     27  O   UNL d   1      19.122   7.723  21.600  0.00  0.00    -0.395 OA
ATOM     28  H   UNL d   1      19.153   8.071  22.511  0.00  0.00     0.210 HD
ENDBRANCH  19  27
TORSDOF 5
ENDMDL
MODEL 8
REMARK VINA RESULT:      -6.9      4.978      8.477
REMARK  5 active torsions:
REMARK  status: ('A' for Active; 'I' for Inactive)
REMARK    1  A    between atoms: C_2  and  O_1 
REMARK    2  A    between atoms: C_3  and  C_2 
REMARK    3  A    between atoms: C_4  and  C_3 
REMARK    4  A    between atoms: C_4  and  O_6 
REMARK    5  A    between atoms: C_24  and  O_25 
ROOT
ATOM      1  C   UNL d   1      18.071   4.444 -21.408  0.00  0.00     0.128 C 
ATOM      2  C   UNL d   1      17.718   5.927 -21.722  0.00  0.00     0.047 C 
ATOM      3  C   UNL d   1      16.849   3.832 -22.235  0.00  0.00    -0.002 C 
ATOM      4  C   UNL d   1      16.245   6.024 -21.313  0.00  0.00     0.009 C 
ATOM      5  C   UNL d   1      17.440   3.947 -23.710  0.00  0.00     0.019 C 
ATOM      6  C   UNL d   1      16.211   2.413 -22.246  0.00  0.00     0.013 C 
ATOM      7  C   UNL d   1      15.656   4.691 -21.775  0.00  0.00     0.002 C 
ATOM      8  C   UNL d   1      15.087   2.325 -23.364  0.00  0.00     0.007 C 
ATOM      9  C   UNL d   1      14.599   4.814 -22.849  0.00  0.00    -0.001 C 
ATOM     10  C   UNL d   1      14.003   3.498 -23.455  0.00  0.00     0.003 C 
ATOM     11  C   UNL d   1      13.413   5.658 -22.387  0.00  0.00     0.033 C 
ATOM     12  C   UNL d   1      13.331   3.956 -24.930  0.00  0.00    -0.017 C 
ATOM     13  C   UNL d   1      12.775   6.123 -23.636  0.00  0.00    -0.023 C 
ATOM     14  C   UNL d   1      14.338   3.360 -25.964  0.00  0.00     0.020 C 
ATOM     15  C   UNL d   1      11.969   3.372 -25.458  0.00  0.00     0.016 C 
ATOM     16  C   UNL d   1      12.852   5.488 -24.832  0.00  0.00    -0.072 C 
ATOM     17  C   UNL d   1      11.674   3.984 -26.885  0.00  0.00     0.033 C 
ATOM     18  C   UNL d   1      12.192   6.248 -25.938  0.00  0.00     0.066 C 
ATOM     19  C   UNL d   1      11.269   5.447 -26.836  0.00  0.00     0.122 C 
ENDROOT
BRANCH   1  20
ATOM     20  O   UNL d   1      18.185   4.959 -19.985  0.00  0.00    -0.381 OA
ATOM     21  H   UNL d   1      17.976   4.179 -19.410  0.00  0.00     0.211 HD
ENDBRANCH   1  20
BRANCH   1  22
ATOM     22  C   UNL d   1      18.530   3.233 -20.579  0.00  0.00     0.184 C 
ATOM     23  O   UNL d   1      19.344   2.422 -21.044  0.00  0.00    -0.292 OA
BRANCH  22  24
ATOM     24  C   UNL d   1      17.937   2.996 -19.144  0.00  0.00     0.245 C 
BRANCH  24  25
ATOM     25  O   UNL d   1      18.953   2.753 -18.188  0.00  0.00    -0.393 OA
ATOM     26  H   UNL d   1      18.898   3.507 -17.568  0.00  0.00     0.209 HD
ENDBRANCH  24  25
ENDBRANCH  22  24
ENDBRANCH   1  22
BRANCH  19  27
ATOM     27  O   UNL d   1      11.287   6.018 -28.152  0.00  0.00    -0.395 OA
ATOM     28  H   UNL d   1      10.421   5.844 -28.565  0.00  0.00     0.210 HD
ENDBRANCH  19  27
TORSDOF 5
ENDMDL
MODEL 9
REMARK VINA RESULT:      -6.8     39.804     41.554
REMARK  5 active torsions:
REMARK  status: ('A' for Active; 'I' for Inactive)
REMARK    1  A    between atoms: C_2  and  O_1 
REMARK    2  A    between atoms: C_3  and  C_2 
REMARK    3  A    between atoms: C_4  and  C_3 
REMARK    4  A    between atoms: C_4  and  O_6 
REMARK    5  A    between atoms: C_24  and  O_25 
ROOT
ATOM      1  C   UNL d   1      21.466   6.060  22.050  0.00  0.00     0.128 C 
ATOM      2  C   UNL d   1      20.965   4.910  21.129  0.00  0.00     0.047 C 
ATOM      3  C   UNL d   1      22.772   5.283  22.544  0.00  0.00    -0.002 C 
ATOM      4  C   UNL d   1      20.964   3.696  22.064  0.00  0.00     0.009 C 
ATOM      5  C   UNL d   1      23.715   5.514  21.281  0.00  0.00     0.019 C 
ATOM      6  C   UNL d   1      23.744   5.539  23.732  0.00  0.00     0.013 C 
ATOM      7  C   UNL d   1      22.229   3.886  22.900  0.00  0.00     0.002 C 
ATOM      8  C   UNL d   1      24.957   4.516  23.678  0.00  0.00     0.007 C 
ATOM      9  C   UNL d   1      23.271   2.807  22.710  0.00  0.00    -0.001 C 
ATOM     10  C   UNL d   1      24.642   2.964  23.452  0.00  0.00     0.003 C 
ATOM     11  C   UNL d   1      22.733   1.425  23.073  0.00  0.00     0.033 C 
ATOM     12  C   UNL d   1      25.712   1.965  22.619  0.00  0.00    -0.017 C 
ATOM     13  C   UNL d   1      23.614   0.480  22.355  0.00  0.00    -0.023 C 
ATOM     14  C   UNL d   1      26.604   2.990  21.849  0.00  0.00     0.020 C 
ATOM     15  C   UNL d   1      26.803   1.097  23.348  0.00  0.00     0.016 C 
ATOM     16  C   UNL d   1      24.892   0.738  21.982  0.00  0.00    -0.072 C 
ATOM     17  C   UNL d   1      27.652   0.330  22.259  0.00  0.00     0.033 C 
ATOM     18  C   UNL d   1      25.498  -0.368  21.180  0.00  0.00     0.066 C 
ATOM     19  C   UNL d   1      26.890  -0.805  21.595  0.00  0.00     0.122 C 
ENDROOT
BRANCH   1  20
ATOM     20  O   UNL d   1      20.029   6.055  22.538  0.00  0.00    -0.381 OA
ATOM     21  H   UNL d   1      19.674   6.951  22.306  0.00  0.00     0.211 HD
ENDBRANCH   1  20
BRANCH   1  22
ATOM     22  C   UNL d   1      21.383   7.214  23.062  0.00  0.00     0.184 C 
ATOM     23  O   UNL d   1      22.085   8.227  22.924  0.00  0.00    -0.292 OA
BRANCH  22  24
ATOM     24  C   UNL d   1      20.429   7.099  24.305  0.00  0.00     0.245 C 
BRANCH  24  25
ATOM     25  O   UNL d   1      21.108   6.607  25.446  0.00  0.00    -0.393 OA
ATOM     26  H   UNL d   1      21.057   7.332  26.099  0.00  0.00     0.209 HD
ENDBRANCH  24  25
ENDBRANCH  22  24
ENDBRANCH   1  22
BRANCH  19  27
ATOM     27  O   UNL d   1      27.596  -1.276  20.439  0.00  0.00    -0.395 OA
ATOM     28  H   UNL d   1      27.078  -1.026  19.651  0.00  0.00     0.210 HD
ENDBRANCH  19  27
TORSDOF 5
ENDMDL
