MODEL 1
REMARK VINA RESULT:      -4.6      0.000      0.000
REMARK  6 active torsions:
REMARK  status: ('A' for Active; 'I' for Inactive)
REMARK    1  A    between atoms: O_1  and  C_2 
REMARK    2  A    between atoms: C_2  and  C_3 
REMARK    3  A    between atoms: C_3  and  C_5 
REMARK    4  A    between atoms: C_5  and  C_6 
REMARK    5  A    between atoms: C_6  and  C_7 
REMARK    6  A    between atoms: C_7  and  O_10 
ROOT
ATOM      1  C   UNL d   1       8.052 -12.789 -28.856  0.00  0.00     0.101 C 
ENDROOT
BRANCH   1   2
ATOM      2  C   UNL d   1       7.344 -11.437 -28.817  0.00  0.00     0.118 C 
BRANCH   2   3
ATOM      3  C   UNL d   1       5.940 -11.577 -28.281  0.00  0.00     0.139 C 
ATOM      4  O   UNL d   1       4.930 -11.235 -28.874  0.00  0.00    -0.650 OA
BRANCH   3   5
ATOM      5  O   UNL d   1       5.903 -12.131 -27.049  0.00  0.00    -0.776 OA
ATOM      6  H   UNL d   1       6.748 -12.089 -26.561  0.00  0.00     0.167 HD
ENDBRANCH   3   5
ENDBRANCH   2   3
ENDBRANCH   1   2
BRANCH   1   7
ATOM      7  C   UNL d   1       7.304 -13.796 -29.691  0.00  0.00     0.222 C 
ATOM      8  O   UNL d   1       6.859 -13.607 -30.819  0.00  0.00    -0.286 OA
BRANCH   7   9
ATOM      9  C   UNL d   1       7.091 -15.174 -29.062  0.00  0.00     0.213 C 
ATOM     10  O   UNL d   1       7.612 -16.185 -29.489  0.00  0.00    -0.644 OA
BRANCH   9  11
ATOM     11  O   UNL d   1       6.269 -15.103 -27.999  0.00  0.00    -0.771 OA
ATOM     12  H   UNL d   1       5.551 -15.773 -28.087  0.00  0.00     0.168 HD
ENDBRANCH   9  11
ENDBRANCH   7   9
ENDBRANCH   1   7
TORSDOF 6
ENDMDL
MODEL 2
REMARK VINA RESULT:      -4.6     38.226     39.035
REMARK  6 active torsions:
REMARK  status: ('A' for Active; 'I' for Inactive)
REMARK    1  A    between atoms: O_1  and  C_2 
REMARK    2  A    between atoms: C_2  and  C_3 
REMARK    3  A    between atoms: C_3  and  C_5 
REMARK    4  A    between atoms: C_5  and  C_6 
REMARK    5  A    between atoms: C_6  and  C_7 
REMARK    6  A    between atoms: C_7  and  O_10 
ROOT
ATOM      1  C   UNL d   1      33.798   4.258  -6.046  0.00  0.00     0.101 C 
ENDROOT
BRANCH   1   2
ATOM      2  C   UNL d   1      32.599   3.344  -5.813  0.00  0.00     0.118 C 
BRANCH   2   3
ATOM      3  C   UNL d   1      32.930   2.258  -4.818  0.00  0.00     0.139 C 
ATOM      4  O   UNL d   1      33.974   2.182  -4.191  0.00  0.00    -0.650 OA
BRANCH   3   5
ATOM      5  O   UNL d   1      31.936   1.353  -4.682  0.00  0.00    -0.776 OA
ATOM      6  H   UNL d   1      31.777   0.805  -5.474  0.00  0.00     0.167 HD
ENDBRANCH   3   5
ENDBRANCH   2   3
ENDBRANCH   1   2
BRANCH   1   7
ATOM      7  C   UNL d   1      34.620   3.824  -7.232  0.00  0.00     0.222 C 
ATOM      8  O   UNL d   1      35.385   2.864  -7.264  0.00  0.00    -0.286 OA
BRANCH   7   9
ATOM      9  C   UNL d   1      34.474   4.663  -8.503  0.00  0.00     0.213 C 
ATOM     10  O   UNL d   1      33.861   5.711  -8.538  0.00  0.00    -0.644 OA
BRANCH   9  11
ATOM     11  O   UNL d   1      35.106   4.088  -9.541  0.00  0.00    -0.771 OA
ATOM     12  H   UNL d   1      34.447   3.664 -10.140  0.00  0.00     0.168 HD
ENDBRANCH   9  11
ENDBRANCH   7   9
ENDBRANCH   1   7
TORSDOF 6
ENDMDL
MODEL 3
REMARK VINA RESULT:      -4.6      1.503      3.882
REMARK  6 active torsions:
REMARK  status: ('A' for Active; 'I' for Inactive)
REMARK    1  A    between atoms: O_1  and  C_2 
REMARK    2  A    between atoms: C_2  and  C_3 
REMARK    3  A    between atoms: C_3  and  C_5 
REMARK    4  A    between atoms: C_5  and  C_6 
REMARK    5  A    between atoms: C_6  and  C_7 
REMARK    6  A    between atoms: C_7  and  O_10 
ROOT
ATOM      1  C   UNL d   1       7.225 -12.400 -28.699  0.00  0.00     0.101 C 
ENDROOT
BRANCH   1   2
ATOM      2  C   UNL d   1       6.923 -13.740 -28.036  0.00  0.00     0.118 C 
BRANCH   2   3
ATOM      3  C   UNL d   1       6.976 -14.865 -29.041  0.00  0.00     0.139 C 
ATOM      4  O   UNL d   1       6.304 -15.883 -28.986  0.00  0.00    -0.650 OA
BRANCH   3   5
ATOM      5  O   UNL d   1       7.860 -14.635 -30.037  0.00  0.00    -0.776 OA
ATOM      6  H   UNL d   1       8.200 -15.441 -30.471  0.00  0.00     0.167 HD
ENDBRANCH   3   5
ENDBRANCH   2   3
ENDBRANCH   1   2
BRANCH   1   7
ATOM      7  C   UNL d   1       5.979 -11.729 -29.217  0.00  0.00     0.222 C 
ATOM      8  O   UNL d   1       5.065 -11.281 -28.531  0.00  0.00    -0.286 OA
BRANCH   7   9
ATOM      9  C   UNL d   1       5.858 -11.603 -30.737  0.00  0.00     0.213 C 
ATOM     10  O   UNL d   1       6.467 -12.314 -31.511  0.00  0.00    -0.644 OA
BRANCH   9  11
ATOM     11  O   UNL d   1       5.004 -10.621 -31.078  0.00  0.00    -0.771 OA
ATOM     12  H   UNL d   1       5.495  -9.771 -31.176  0.00  0.00     0.168 HD
ENDBRANCH   9  11
ENDBRANCH   7   9
ENDBRANCH   1   7
TORSDOF 6
ENDMDL
MODEL 4
REMARK VINA RESULT:      -4.5     38.097     39.203
REMARK  6 active torsions:
REMARK  status: ('A' for Active; 'I' for Inactive)
REMARK    1  A    between atoms: O_1  and  C_2 
REMARK    2  A    between atoms: C_2  and  C_3 
REMARK    3  A    between atoms: C_3  and  C_5 
REMARK    4  A    between atoms: C_5  and  C_6 
REMARK    5  A    between atoms: C_6  and  C_7 
REMARK    6  A    between atoms: C_7  and  O_10 
ROOT
ATOM      1  C   UNL d   1      34.278   5.235  -6.853  0.00  0.00     0.101 C 
ENDROOT
BRANCH   1   2
ATOM      2  C   UNL d   1      33.052   4.808  -6.052  0.00  0.00     0.118 C 
BRANCH   2   3
ATOM      3  C   UNL d   1      32.351   6.005  -5.455  0.00  0.00     0.139 C 
ATOM      4  O   UNL d   1      31.176   6.283  -5.629  0.00  0.00    -0.650 OA
BRANCH   3   5
ATOM      5  O   UNL d   1      33.169   6.760  -4.690  0.00  0.00    -0.776 OA
ATOM      6  H   UNL d   1      32.725   7.212  -3.947  0.00  0.00     0.167 HD
ENDBRANCH   3   5
ENDBRANCH   2   3
ENDBRANCH   1   2
BRANCH   1   7
ATOM      7  C   UNL d   1      34.794   4.125  -7.734  0.00  0.00     0.222 C 
ATOM      8  O   UNL d   1      35.413   3.136  -7.356  0.00  0.00    -0.286 OA
BRANCH   7   9
ATOM      9  C   UNL d   1      34.508   4.260  -9.231  0.00  0.00     0.213 C 
ATOM     10  O   UNL d   1      34.277   3.309  -9.950  0.00  0.00    -0.644 OA
BRANCH   9  11
ATOM     11  O   UNL d   1      34.548   5.547  -9.620  0.00  0.00    -0.771 OA
ATOM     12  H   UNL d   1      34.906   6.105  -8.891  0.00  0.00     0.168 HD
ENDBRANCH   9  11
ENDBRANCH   7   9
ENDBRANCH   1   7
TORSDOF 6
ENDMDL
MODEL 5
REMARK VINA RESULT:      -4.3     25.104     26.167
REMARK  6 active torsions:
REMARK  status: ('A' for Active; 'I' for Inactive)
REMARK    1  A    between atoms: O_1  and  C_2 
REMARK    2  A    between atoms: C_2  and  C_3 
REMARK    3  A    between atoms: C_3  and  C_5 
REMARK    4  A    between atoms: C_5  and  C_6 
REMARK    5  A    between atoms: C_6  and  C_7 
REMARK    6  A    between atoms: C_7  and  O_10 
ROOT
ATOM      1  C   UNL d   1     -13.758 -17.572 -15.186  0.00  0.00     0.101 C 
ENDROOT
BRANCH   1   2
ATOM      2  C   UNL d   1     -12.445 -18.074 -14.592  0.00  0.00     0.118 C 
BRANCH   2   3
ATOM      3  C   UNL d   1     -12.315 -17.665 -13.145  0.00  0.00     0.139 C 
ATOM      4  O   UNL d   1     -12.346 -18.432 -12.197  0.00  0.00    -0.650 OA
BRANCH   3   5
ATOM      5  O   UNL d   1     -12.155 -16.331 -12.992  0.00  0.00    -0.776 OA
ATOM      6  H   UNL d   1     -11.254 -16.058 -12.736  0.00  0.00     0.167 HD
ENDBRANCH   3   5
ENDBRANCH   2   3
ENDBRANCH   1   2
BRANCH   1   7
ATOM      7  C   UNL d   1     -14.831 -18.630 -15.168  0.00  0.00     0.222 C 
ATOM      8  O   UNL d   1     -15.159 -19.338 -16.115  0.00  0.00    -0.286 OA
BRANCH   7   9
ATOM      9  C   UNL d   1     -15.565 -18.829 -13.840  0.00  0.00     0.213 C 
ATOM     10  O   UNL d   1     -16.518 -18.156 -13.503  0.00  0.00    -0.644 OA
BRANCH   9  11
ATOM     11  O   UNL d   1     -15.016 -19.828 -13.126  0.00  0.00    -0.771 OA
ATOM     12  H   UNL d   1     -15.465 -19.899 -12.251  0.00  0.00     0.168 HD
ENDBRANCH   9  11
ENDBRANCH   7   9
ENDBRANCH   1   7
TORSDOF 6
ENDMDL
MODEL 6
REMARK VINA RESULT:      -4.3     38.393     39.225
REMARK  6 active torsions:
REMARK  status: ('A' for Active; 'I' for Inactive)
REMARK    1  A    between atoms: O_1  and  C_2 
REMARK    2  A    between atoms: C_2  and  C_3 
REMARK    3  A    between atoms: C_3  and  C_5 
REMARK    4  A    between atoms: C_5  and  C_6 
REMARK    5  A    between atoms: C_6  and  C_7 
REMARK    6  A    between atoms: C_7  and  O_10 
ROOT
ATOM      1  C   UNL d   1      33.899   5.868  -6.787  0.00  0.00     0.101 C 
ENDROOT
BRANCH   1   2
ATOM      2  C   UNL d   1      34.019   5.472  -8.256  0.00  0.00     0.118 C 
BRANCH   2   3
ATOM      3  C   UNL d   1      34.819   4.202  -8.411  0.00  0.00     0.139 C 
ATOM      4  O   UNL d   1      35.732   3.859  -7.677  0.00  0.00    -0.650 OA
BRANCH   3   5
ATOM      5  O   UNL d   1      34.421   3.458  -9.466  0.00  0.00    -0.776 OA
ATOM      6  H   UNL d   1      33.494   3.602  -9.736  0.00  0.00     0.167 HD
ENDBRANCH   3   5
ENDBRANCH   2   3
ENDBRANCH   1   2
BRANCH   1   7
ATOM      7  C   UNL d   1      32.709   5.226  -6.121  0.00  0.00     0.222 C 
ATOM      8  O   UNL d   1      32.600   4.037  -5.835  0.00  0.00    -0.286 OA
BRANCH   7   9
ATOM      9  C   UNL d   1      31.543   6.153  -5.776  0.00  0.00     0.213 C 
ATOM     10  O   UNL d   1      30.497   6.161  -6.394  0.00  0.00    -0.644 OA
BRANCH   9  11
ATOM     11  O   UNL d   1      31.836   6.932  -4.719  0.00  0.00    -0.771 OA
ATOM     12  H   UNL d   1      31.435   7.824  -4.840  0.00  0.00     0.168 HD
ENDBRANCH   9  11
ENDBRANCH   7   9
ENDBRANCH   1   7
TORSDOF 6
ENDMDL
MODEL 7
REMARK VINA RESULT:      -4.3      1.821      3.654
REMARK  6 active torsions:
REMARK  status: ('A' for Active; 'I' for Inactive)
REMARK    1  A    between atoms: O_1  and  C_2 
REMARK    2  A    between atoms: C_2  and  C_3 
REMARK    3  A    between atoms: C_3  and  C_5 
REMARK    4  A    between atoms: C_5  and  C_6 
REMARK    5  A    between atoms: C_6  and  C_7 
REMARK    6  A    between atoms: C_7  and  O_10 
ROOT
ATOM      1  C   UNL d   1       7.125 -11.641 -29.825  0.00  0.00     0.101 C 
ENDROOT
BRANCH   1   2
ATOM      2  C   UNL d   1       6.588 -11.310 -31.214  0.00  0.00     0.118 C 
BRANCH   2   3
ATOM      3  C   UNL d   1       6.598 -12.529 -32.103  0.00  0.00     0.139 C 
ATOM      4  O   UNL d   1       7.408 -13.438 -32.031  0.00  0.00    -0.650 OA
BRANCH   3   5
ATOM      5  O   UNL d   1       5.598 -12.521 -33.012  0.00  0.00    -0.776 OA
ATOM      6  H   UNL d   1       4.918 -11.837 -32.860  0.00  0.00     0.167 HD
ENDBRANCH   3   5
ENDBRANCH   2   3
ENDBRANCH   1   2
BRANCH   1   7
ATOM      7  C   UNL d   1       6.028 -11.713 -28.794  0.00  0.00     0.222 C 
ATOM      8  O   UNL d   1       4.963 -11.103 -28.833  0.00  0.00    -0.286 OA
BRANCH   7   9
ATOM      9  C   UNL d   1       6.279 -12.634 -27.599  0.00  0.00     0.213 C 
ATOM     10  O   UNL d   1       6.887 -13.682 -27.686  0.00  0.00    -0.644 OA
BRANCH   9  11
ATOM     11  O   UNL d   1       5.745 -12.127 -26.473  0.00  0.00    -0.771 OA
ATOM     12  H   UNL d   1       5.338 -11.249 -26.662  0.00  0.00     0.168 HD
ENDBRANCH   9  11
ENDBRANCH   7   9
ENDBRANCH   1   7
TORSDOF 6
ENDMDL
MODEL 8
REMARK VINA RESULT:      -4.3     39.358     40.133
REMARK  6 active torsions:
REMARK  status: ('A' for Active; 'I' for Inactive)
REMARK    1  A    between atoms: O_1  and  C_2 
REMARK    2  A    between atoms: C_2  and  C_3 
REMARK    3  A    between atoms: C_3  and  C_5 
REMARK    4  A    between atoms: C_5  and  C_6 
REMARK    5  A    between atoms: C_6  and  C_7 
REMARK    6  A    between atoms: C_7  and  O_10 
ROOT
ATOM      1  C   UNL d   1     -31.680 -10.083 -36.276  0.00  0.00     0.101 C 
ENDROOT
BRANCH   1   2
ATOM      2  C   UNL d   1     -32.955 -10.600 -35.616  0.00  0.00     0.118 C 
BRANCH   2   3
ATOM      3  C   UNL d   1     -32.854 -12.078 -35.327  0.00  0.00     0.139 C 
ATOM      4  O   UNL d   1     -32.300 -12.562 -34.354  0.00  0.00    -0.650 OA
BRANCH   3   5
ATOM      5  O   UNL d   1     -33.452 -12.837 -36.271  0.00  0.00    -0.776 OA
ATOM      6  H   UNL d   1     -32.908 -13.577 -36.600  0.00  0.00     0.167 HD
ENDBRANCH   3   5
ENDBRANCH   2   3
ENDBRANCH   1   2
BRANCH   1   7
ATOM      7  C   UNL d   1     -31.722 -10.220 -37.777  0.00  0.00     0.222 C 
ATOM      8  O   UNL d   1     -31.516 -11.250 -38.411  0.00  0.00    -0.286 OA
BRANCH   7   9
ATOM      9  C   UNL d   1     -32.055  -8.951 -38.563  0.00  0.00     0.213 C 
ATOM     10  O   UNL d   1     -31.251  -8.064 -38.762  0.00  0.00    -0.644 OA
BRANCH   9  11
ATOM     11  O   UNL d   1     -33.331  -8.965 -38.991  0.00  0.00    -0.771 OA
ATOM     12  H   UNL d   1     -33.897  -8.449 -38.369  0.00  0.00     0.168 HD
ENDBRANCH   9  11
ENDBRANCH   7   9
ENDBRANCH   1   7
TORSDOF 6
ENDMDL
MODEL 9
REMARK VINA RESULT:      -4.2     43.962     44.714
REMARK  6 active torsions:
REMARK  status: ('A' for Active; 'I' for Inactive)
REMARK    1  A    between atoms: O_1  and  C_2 
REMARK    2  A    between atoms: C_2  and  C_3 
REMARK    3  A    between atoms: C_3  and  C_5 
REMARK    4  A    between atoms: C_5  and  C_6 
REMARK    5  A    between atoms: C_6  and  C_7 
REMARK    6  A    between atoms: C_7  and  O_10 
ROOT
ATOM      1  C   UNL d   1      21.170 -19.588  13.292  0.00  0.00     0.101 C 
ENDROOT
BRANCH   1   2
ATOM      2  C   UNL d   1      21.939 -18.824  12.219  0.00  0.00     0.118 C 
BRANCH   2   3
ATOM      3  C   UNL d   1      23.428 -19.002  12.390  0.00  0.00     0.139 C 
ATOM      4  O   UNL d   1      24.269 -18.173  12.082  0.00  0.00    -0.650 OA
BRANCH   3   5
ATOM      5  O   UNL d   1      23.753 -20.196  12.931  0.00  0.00    -0.776 OA
ATOM      6  H   UNL d   1      23.882 -20.914  12.282  0.00  0.00     0.167 HD
ENDBRANCH   3   5
ENDBRANCH   2   3
ENDBRANCH   1   2
BRANCH   1   7
ATOM      7  C   UNL d   1      20.333 -20.698  12.709  0.00  0.00     0.222 C 
ATOM      8  O   UNL d   1      20.653 -21.424  11.773  0.00  0.00    -0.286 OA
BRANCH   7   9
ATOM      9  C   UNL d   1      18.966 -20.928  13.355  0.00  0.00     0.213 C 
ATOM     10  O   UNL d   1      18.787 -21.707  14.270  0.00  0.00    -0.644 OA
BRANCH   9  11
ATOM     11  O   UNL d   1      18.021 -20.163  12.779  0.00  0.00    -0.771 OA
ATOM     12  H   UNL d   1      18.344 -19.831  11.909  0.00  0.00     0.168 HD
ENDBRANCH   9  11
ENDBRANCH   7   9
ENDBRANCH   1   7
TORSDOF 6
ENDMDL
