MODEL 1
REMARK VINA RESULT:      -8.6      0.000      0.000
REMARK WARNING: 32 MAX_TORS EXCEEDED!!!
REMARK  41 active torsions:
REMARK  status: ('A' for Active; 'I' for Inactive)
REMARK    1  A    between atoms: CB_3  and  CG1_2 
REMARK    2  A    between atoms: CA_4  and  CB_3 
REMARK    3  A    between atoms: CA_4  and  C_6 
REMARK    4  A    between atoms: CA_4  and  N_7 
REMARK       I    between atoms: C_6  and  N_8 
REMARK       I    between atoms: N_7  and  C_10 
REMARK    5  A    between atoms: N_8  and  CA_11 
REMARK    6  A    between atoms: CA_12  and  C_10 
REMARK    7  A    between atoms: CA_11  and  CB_15 
REMARK    8  A    between atoms: CA_11  and  C_14 
REMARK    9  A    between atoms: CA_12  and  N_17 
REMARK   10  A    between atoms: CA_12  and  CB_16 
REMARK       I    between atoms: C_14  and  N_18 
REMARK   11  A    between atoms: CB_15  and  CG_20 
REMARK   12  A    between atoms: CB_16  and  CG_21 
REMARK       I    between atoms: N_17  and  C_22 
REMARK   13  A    between atoms: C_22  and  CA_29 
REMARK   14  A    between atoms: CA_24  and  C_33 
REMARK   15  A    between atoms: CA_29  and  N_39 
REMARK   16  A    between atoms: CA_29  and  CB_38 
REMARK       I    between atoms: C_33  and  N_40 
REMARK       I    between atoms: N_39  and  C_45 
REMARK   17  A    between atoms: N_40  and  CA_46 
REMARK   18  A    between atoms: CZ_42  and  OH_47 
REMARK   19  A    between atoms: CA_48  and  C_45 
REMARK   20  A    between atoms: CA_46  and  CB_51 
REMARK   21  A    between atoms: CA_46  and  C_50 
REMARK   22  A    between atoms: CA_48  and  N_52 
REMARK   23  A    between atoms: CA_48  and  CB_53 
REMARK       I    between atoms: C_50  and  N_54 
REMARK   24  A    between atoms: CB_51  and  CG_56 
REMARK       I    between atoms: N_52  and  C_57 
REMARK   25  A    between atoms: CB_53  and  CG_58 
REMARK   26  A    between atoms: N_54  and  CA_59 
REMARK   27  A    between atoms: C_57  and  CA_62 
REMARK   28  A    between atoms: CG_58  and  CD_64 
REMARK   29  A    between atoms: CA_59  and  CB_66 
REMARK   30  A    between atoms: CA_59  and  C_65 
REMARK   31  A    between atoms: CA_62  and  N_70 
REMARK   32  A    between atoms: CA_62  and  CB_69 
REMARK   33  A    between atoms: CD_64  and  NE_71 
REMARK       I    between atoms: C_65  and  N_72 
REMARK   34  A    between atoms: CB_66  and  CG_74 
REMARK   35  A    between atoms: CB_69  and  CG_76 
REMARK   36  A    between atoms: N_72  and  CA_78 
REMARK   37  A    between atoms: CG_76  and  OD1_82 
REMARK       I    between atoms: CZ_77  and  NH1_83 
REMARK       I    between atoms: CZ_77  and  NH2_84 
REMARK   38  A    between atoms: CA_78  and  CB_86 
REMARK   39  A    between atoms: CA_78  and  C_85 
REMARK   40  A    between atoms: C_85  and  O_90 
REMARK   41  A    between atoms: CB_86  and  CG_91 
ROOT
ATOM      1  CA  ILE d   5      -2.341   3.779  26.404  0.00  0.00     0.180 C 
ENDROOT
BRANCH   1   2
ATOM      2  C   ILE d   5      -1.769   5.164  25.949  0.00  0.00     0.241 C 
ATOM      3  O   ILE d   5      -1.957   5.588  24.810  0.00  0.00    -0.271 OA
ATOM      4  N   HIS d   6      -0.950   5.805  26.845  0.00  0.00    -0.346 N 
ATOM      5  H   HIS d   6      -0.901   5.451  27.783  0.00  0.00     0.163 HD
BRANCH   4   6
ATOM      6  CA  HIS d   6      -0.595   7.232  26.822  0.00  0.00     0.182 C 
BRANCH   6   7
ATOM      7  CB  HIS d   6      -1.484   7.819  27.992  0.00  0.00     0.087 C 
BRANCH   7   8
ATOM      8  CG  HIS d   6      -1.682   7.126  29.294  0.00  0.00     0.010 C 
ATOM      9  CD2 HIS d   6      -2.811   6.770  30.013  0.00  0.00     0.136 C 
ATOM     10  NE2 HIS d   6      -2.455   5.989  31.083  0.00  0.00    -0.260 NA
ATOM     11  CE1 HIS d   6      -1.153   5.881  30.998  0.00  0.00     0.180 C 
ATOM     12  ND1 HIS d   6      -0.680   6.921  30.236  0.00  0.00    -0.256 NA
ATOM     13  HD1 HIS d   6      -0.349   7.720  30.751  0.00  0.00     0.134 HD
ENDBRANCH   7   8
ENDBRANCH   6   7
BRANCH   6  14
ATOM     14  C   HIS d   6       0.985   7.247  27.103  0.00  0.00     0.243 C 
ATOM     15  O   HIS d   6       1.444   6.469  27.951  0.00  0.00    -0.271 OA
ATOM     16  N   PRO d   7       1.880   8.099  26.402  0.00  0.00    -0.337 N 
ATOM     17  CD  PRO d   7       1.706   8.472  24.997  0.00  0.00     0.127 C 
ATOM     18  CA  PRO d   7       3.364   7.953  26.654  0.00  0.00     0.179 C 
ATOM     19  CG  PRO d   7       2.882   7.807  24.277  0.00  0.00     0.022 C 
ATOM     20  CB  PRO d   7       3.768   7.209  25.372  0.00  0.00     0.037 C 
BRANCH  18  21
ATOM     21  C   PRO d   7       4.216   9.297  26.718  0.00  0.00     0.241 C 
ATOM     22  O   PRO d   7       3.857  10.291  26.076  0.00  0.00    -0.271 OA
ATOM     23  N   PHE d   8       5.351   9.504  27.484  0.00  0.00    -0.346 N 
ATOM     24  H   PHE d   8       5.664  10.438  27.243  0.00  0.00     0.163 HD
BRANCH  23  25
ATOM     25  CA  PHE d   8       6.451   8.624  28.002  0.00  0.00     0.180 C 
BRANCH  25  26
ATOM     26  CB  PHE d   8       7.359   8.044  26.829  0.00  0.00     0.073 C 
BRANCH  26  27
ATOM     27  CG  PHE d   8       7.323   6.571  26.373  0.00  0.00    -0.056 C 
ATOM     28  CD1 PHE d   8       7.803   6.197  25.117  0.00  0.00     0.007 C 
ATOM     29  CE1 PHE d   8       7.849   4.843  24.719  0.00  0.00     0.001 C 
ATOM     30  CZ  PHE d   8       7.345   3.830  25.538  0.00  0.00     0.000 C 
ATOM     31  CE2 PHE d   8       6.895   4.161  26.796  0.00  0.00     0.001 C 
ATOM     32  CD2 PHE d   8       6.976   5.489  27.213  0.00  0.00     0.007 C 
ENDBRANCH  26  27
ENDBRANCH  25  26
BRANCH  25  33
ATOM     33  C   PHE d   8       7.241   9.320  29.111  0.00  0.00     0.241 C 
ATOM     34  O   PHE d   8       7.579  10.485  28.973  0.00  0.00    -0.271 OA
ATOM     35  N   HIS d   9       7.660   8.694  30.241  0.00  0.00    -0.346 N 
ATOM     36  H   HIS d   9       8.088   9.410  30.807  0.00  0.00     0.163 HD
BRANCH  35  37
ATOM     37  CA  HIS d   9       7.304   7.432  30.916  0.00  0.00     0.182 C 
BRANCH  37  38
ATOM     38  CB  HIS d   9       8.035   6.086  30.665  0.00  0.00     0.093 C 
BRANCH  38  39
ATOM     39  CG  HIS d   9       9.476   6.080  30.940  0.00  0.00     0.030 C 
ATOM     40  CD2 HIS d   9      10.486   5.400  30.328  0.00  0.00     0.143 C 
ATOM     41  NE2 HIS d   9      11.706   5.825  30.770  0.00  0.00    -0.254 NA
ATOM     42  CE1 HIS d   9      11.439   6.691  31.716  0.00  0.00     0.207 C 
ATOM     43  ND1 HIS d   9      10.097   6.749  31.965  0.00  0.00    -0.353 N 
ATOM     44  HD1 HIS d   9       9.663   7.217  32.748  0.00  0.00     0.166 HD
ENDBRANCH  38  39
ENDBRANCH  37  38
BRANCH  37  45
ATOM     45  C   HIS d   9       6.672   7.499  32.353  0.00  0.00     0.241 C 
ATOM     46  O   HIS d   9       7.349   7.887  33.311  0.00  0.00    -0.271 OA
ATOM     47  N   LEU d  10       5.414   7.065  32.674  0.00  0.00    -0.345 N 
ATOM     48  H   LEU d  10       5.324   7.163  33.683  0.00  0.00     0.163 HD
BRANCH  47  49
ATOM     49  CA  LEU d  10       4.115   7.376  32.036  0.00  0.00     0.182 C 
BRANCH  49  50
ATOM     50  CB  LEU d  10       4.153   8.655  31.213  0.00  0.00     0.040 C 
BRANCH  50  51
ATOM     51  CG  LEU d  10       3.767   9.900  31.970  0.00  0.00    -0.020 C 
ATOM     52  CD1 LEU d  10       5.008  10.761  32.111  0.00  0.00     0.009 C 
ATOM     53  CD2 LEU d  10       2.560  10.541  31.308  0.00  0.00     0.009 C 
ENDBRANCH  50  51
ENDBRANCH  49  50
BRANCH  49  54
ATOM     54  C   LEU d  10       3.564   6.112  31.330  0.00  0.00     0.163 C 
ATOM     55  OXT LEU d  10       4.087   4.999  31.356  0.00  0.00    -0.648 OA
BRANCH  54  56
ATOM     56  O   LEU d  10       2.416   6.348  30.663  0.00  0.00    -0.775 OA
ATOM     57  H   LEU d  10       2.208   7.302  30.667  0.00  0.00     0.167 HD
ENDBRANCH  54  56
ENDBRANCH  49  54
ENDBRANCH  47  49
ENDBRANCH  37  45
ENDBRANCH  35  37
ENDBRANCH  25  33
ENDBRANCH  23  25
ENDBRANCH  18  21
ENDBRANCH   6  14
ENDBRANCH   4   6
ENDBRANCH   1   2
BRANCH   1  58
ATOM     58  N   ILE d   5      -1.298   3.170  27.257  0.00  0.00    -0.346 N 
ATOM     59  C   TYR d   4      -0.962   1.828  27.234  0.00  0.00     0.241 C 
ATOM     60  O   TYR d   4      -1.614   1.020  26.578  0.00  0.00    -0.271 OA
ATOM     61  H   ILE d   5      -0.537   3.800  27.494  0.00  0.00     0.163 HD
BRANCH  59  62
ATOM     62  CA  TYR d   4       0.281   1.389  28.095  0.00  0.00     0.180 C 
BRANCH  62  63
ATOM     63  N   TYR d   4       1.563   1.897  27.491  0.00  0.00    -0.346 N 
ATOM     64  C   VAL d   3       2.529   0.999  27.040  0.00  0.00     0.241 C 
ATOM     65  O   VAL d   3       2.279  -0.200  27.111  0.00  0.00    -0.271 OA
ATOM     66  H   TYR d   4       1.937   2.740  27.907  0.00  0.00     0.163 HD
BRANCH  64  67
ATOM     67  CA  VAL d   3       3.924   1.564  26.504  0.00  0.00     0.180 C 
BRANCH  67  68
ATOM     68  N   VAL d   3       5.195   0.735  26.500  0.00  0.00    -0.346 N 
ATOM     69  C   ARG d   2       6.339   0.550  27.216  0.00  0.00     0.241 C 
ATOM     70  O   ARG d   2       7.225  -0.067  26.606  0.00  0.00    -0.271 OA
ATOM     71  H   VAL d   3       5.449   0.422  25.563  0.00  0.00     0.163 HD
BRANCH  69  72
ATOM     72  CA  ARG d   2       6.448   0.854  28.714  0.00  0.00     0.176 C 
BRANCH  72  73
ATOM     73  N   ARG d   2       5.649  -0.115  29.475  0.00  0.00    -0.346 N 
ATOM     74  C   ASP d   1       4.437   0.191  30.045  0.00  0.00     0.252 C 
ATOM     75  O   ASP d   1       4.013   1.340  30.188  0.00  0.00    -0.271 OA
ATOM     76  H   ARG d   2       5.747  -1.072  29.147  0.00  0.00     0.163 HD
BRANCH  74  77
ATOM     77  CA  ASP d   1       3.630  -1.025  30.574  0.00  0.00     0.318 C 
BRANCH  77  78
ATOM     78  N   ASP d   1       3.149  -1.797  29.393  0.00  0.00     0.092 N 
ATOM     79  H1  ASP d   1       2.137  -1.718  29.313  0.00  0.00     0.313 HD
ATOM     80  H2  ASP d   1       3.308  -2.793  29.602  0.00  0.00     0.313 HD
ENDBRANCH  77  78
BRANCH  77  81
ATOM     81  CB  ASP d   1       4.517  -1.906  31.461  0.00  0.00     0.155 C 
BRANCH  81  82
ATOM     82  CG  ASP d   1       4.999  -1.164  32.674  0.00  0.00     0.141 C 
ATOM     83  OD2 ASP d   1       4.310  -0.681  33.557  0.00  0.00    -0.650 OA
BRANCH  82  84
ATOM     84  OD1 ASP d   1       6.343  -1.139  32.756  0.00  0.00    -0.776 OA
ATOM     85  HD1 ASP d   1       6.654  -1.664  31.992  0.00  0.00     0.167 HD
ENDBRANCH  82  84
ENDBRANCH  81  82
ENDBRANCH  77  81
ENDBRANCH  74  77
ENDBRANCH  72  73
BRANCH  72  86
ATOM     86  CB  ARG d   2       7.869   1.250  29.162  0.00  0.00     0.037 C 
BRANCH  86  87
ATOM     87  CG  ARG d   2       8.124   2.417  30.129  0.00  0.00     0.024 C 
BRANCH  87  88
ATOM     88  CD  ARG d   2       8.142   2.072  31.614  0.00  0.00     0.152 C 
BRANCH  88  89
ATOM     89  NE  ARG d   2       6.786   1.850  32.088  0.00  0.00    -0.268 NA
ATOM     90  CZ  ARG d   2       6.117   2.717  32.713  0.00  0.00     0.143 C 
ATOM     91  NH1 ARG d   2       4.883   2.390  33.131  0.00  0.00    -0.278 NA
ATOM     92  NH2 ARG d   2       6.452   3.976  33.092  0.00  0.00    -0.278 NA
ATOM     93 1HH1 ARG d   2       4.573   1.527  32.660  0.00  0.00     0.126 HD
ATOM     94 2HH1 ARG d   2       4.187   3.112  33.160  0.00  0.00     0.126 HD
ATOM     95 1HH2 ARG d   2       7.264   4.368  32.625  0.00  0.00     0.126 HD
ATOM     96 2HH2 ARG d   2       5.682   4.645  33.133  0.00  0.00     0.126 HD
ENDBRANCH  88  89
ENDBRANCH  87  88
ENDBRANCH  86  87
ENDBRANCH  72  86
ENDBRANCH  69  72
ENDBRANCH  67  68
BRANCH  67  97
ATOM     97  CB  VAL d   3       3.805   1.999  24.998  0.00  0.00     0.009 C 
ATOM     98  CG1 VAL d   3       3.635   3.521  24.879  0.00  0.00     0.012 C 
ATOM     99  CG2 VAL d   3       4.887   1.486  24.052  0.00  0.00     0.012 C 
ENDBRANCH  67  97
ENDBRANCH  64  67
ENDBRANCH  62  63
BRANCH  62 100
ATOM    100  CB  TYR d   4       0.156   1.809  29.596  0.00  0.00     0.073 C 
BRANCH 100 101
ATOM    101  CG  TYR d   4       0.247   0.726  30.667  0.00  0.00    -0.056 A 
ATOM    102  CD1 TYR d   4      -0.141  -0.600  30.406  0.00  0.00     0.010 A 
ATOM    103  CE1 TYR d   4       0.002  -1.603  31.377  0.00  0.00     0.037 A 
ATOM    104  CZ  TYR d   4       0.516  -1.297  32.624  0.00  0.00     0.065 A 
ATOM    105  CE2 TYR d   4       0.930  -0.006  32.908  0.00  0.00     0.037 A 
ATOM    106  CD2 TYR d   4       0.814   0.979  31.919  0.00  0.00     0.010 A 
BRANCH 104 107
ATOM    107  OH  TYR d   4       0.635  -2.278  33.556  0.00  0.00    -0.361 OA
ATOM    108  HH  TYR d   4       1.174  -1.905  34.277  0.00  0.00     0.217 HD
ENDBRANCH 104 107
ENDBRANCH 100 101
ENDBRANCH  62 100
ENDBRANCH  59  62
ENDBRANCH   1  58
BRANCH   1 109
ATOM    109  CB  ILE d   5      -3.829   3.809  26.930  0.00  0.00     0.013 C 
ATOM    110  CG2 ILE d   5      -4.471   5.204  26.959  0.00  0.00     0.012 C 
BRANCH 109 111
ATOM    111  CG1 ILE d   5      -4.698   2.760  26.180  0.00  0.00     0.002 C 
ATOM    112  CD1 ILE d   5      -5.039   1.492  26.952  0.00  0.00     0.005 C 
ENDBRANCH 109 111
ENDBRANCH   1 109
TORSDOF 41
ENDMDL
MODEL 2
REMARK VINA RESULT:      -8.5      2.867      9.492
REMARK WARNING: 32 MAX_TORS EXCEEDED!!!
REMARK  41 active torsions:
REMARK  status: ('A' for Active; 'I' for Inactive)
REMARK    1  A    between atoms: CB_3  and  CG1_2 
REMARK    2  A    between atoms: CA_4  and  CB_3 
REMARK    3  A    between atoms: CA_4  and  C_6 
REMARK    4  A    between atoms: CA_4  and  N_7 
REMARK       I    between atoms: C_6  and  N_8 
REMARK       I    between atoms: N_7  and  C_10 
REMARK    5  A    between atoms: N_8  and  CA_11 
REMARK    6  A    between atoms: CA_12  and  C_10 
REMARK    7  A    between atoms: CA_11  and  CB_15 
REMARK    8  A    between atoms: CA_11  and  C_14 
REMARK    9  A    between atoms: CA_12  and  N_17 
REMARK   10  A    between atoms: CA_12  and  CB_16 
REMARK       I    between atoms: C_14  and  N_18 
REMARK   11  A    between atoms: CB_15  and  CG_20 
REMARK   12  A    between atoms: CB_16  and  CG_21 
REMARK       I    between atoms: N_17  and  C_22 
REMARK   13  A    between atoms: C_22  and  CA_29 
REMARK   14  A    between atoms: CA_24  and  C_33 
REMARK   15  A    between atoms: CA_29  and  N_39 
REMARK   16  A    between atoms: CA_29  and  CB_38 
REMARK       I    between atoms: C_33  and  N_40 
REMARK       I    between atoms: N_39  and  C_45 
REMARK   17  A    between atoms: N_40  and  CA_46 
REMARK   18  A    between atoms: CZ_42  and  OH_47 
REMARK   19  A    between atoms: CA_48  and  C_45 
REMARK   20  A    between atoms: CA_46  and  CB_51 
REMARK   21  A    between atoms: CA_46  and  C_50 
REMARK   22  A    between atoms: CA_48  and  N_52 
REMARK   23  A    between atoms: CA_48  and  CB_53 
REMARK       I    between atoms: C_50  and  N_54 
REMARK   24  A    between atoms: CB_51  and  CG_56 
REMARK       I    between atoms: N_52  and  C_57 
REMARK   25  A    between atoms: CB_53  and  CG_58 
REMARK   26  A    between atoms: N_54  and  CA_59 
REMARK   27  A    between atoms: C_57  and  CA_62 
REMARK   28  A    between atoms: CG_58  and  CD_64 
REMARK   29  A    between atoms: CA_59  and  CB_66 
REMARK   30  A    between atoms: CA_59  and  C_65 
REMARK   31  A    between atoms: CA_62  and  N_70 
REMARK   32  A    between atoms: CA_62  and  CB_69 
REMARK   33  A    between atoms: CD_64  and  NE_71 
REMARK       I    between atoms: C_65  and  N_72 
REMARK   34  A    between atoms: CB_66  and  CG_74 
REMARK   35  A    between atoms: CB_69  and  CG_76 
REMARK   36  A    between atoms: N_72  and  CA_78 
REMARK   37  A    between atoms: CG_76  and  OD1_82 
REMARK       I    between atoms: CZ_77  and  NH1_83 
REMARK       I    between atoms: CZ_77  and  NH2_84 
REMARK   38  A    between atoms: CA_78  and  CB_86 
REMARK   39  A    between atoms: CA_78  and  C_85 
REMARK   40  A    between atoms: C_85  and  O_90 
REMARK   41  A    between atoms: CB_86  and  CG_91 
ROOT
ATOM      1  CA  ILE d   5      -1.282   5.522  29.131  0.00  0.00     0.180 C 
ENDROOT
BRANCH   1   2
ATOM      2  C   ILE d   5      -0.018   4.994  29.890  0.00  0.00     0.241 C 
ATOM      3  O   ILE d   5      -0.052   4.758  31.096  0.00  0.00    -0.271 OA
ATOM      4  N   HIS d   6       1.145   4.934  29.162  0.00  0.00    -0.346 N 
ATOM      5  H   HIS d   6       1.091   5.061  28.167  0.00  0.00     0.163 HD
BRANCH   4   6
ATOM      6  CA  HIS d   6       2.343   4.155  29.511  0.00  0.00     0.182 C 
BRANCH   6   7
ATOM      7  CB  HIS d   6       2.668   3.411  28.153  0.00  0.00     0.087 C 
BRANCH   7   8
ATOM      8  CG  HIS d   6       1.901   2.235  27.662  0.00  0.00     0.010 C 
ATOM      9  CD2 HIS d   6       0.673   2.102  27.035  0.00  0.00     0.136 C 
ATOM     10  NE2 HIS d   6       0.495   0.803  26.631  0.00  0.00    -0.260 NA
ATOM     11  CE1 HIS d   6       1.588   0.185  27.002  0.00  0.00     0.180 C 
ATOM     12  ND1 HIS d   6       2.181   0.917  28.003  0.00  0.00    -0.256 NA
ATOM     13  HD1 HIS d   6       1.970   0.619  28.941  0.00  0.00     0.134 HD
ENDBRANCH   7   8
ENDBRANCH   6   7
BRANCH   6  14
ATOM     14  C   HIS d   6       3.418   5.265  29.946  0.00  0.00     0.243 C 
ATOM     15  O   HIS d   6       3.932   5.970  29.067  0.00  0.00    -0.271 OA
ATOM     16  N   PRO d   7       3.785   5.487  31.301  0.00  0.00    -0.337 N 
ATOM     17  CD  PRO d   7       2.853   5.350  32.422  0.00  0.00     0.127 C 
ATOM     18  CA  PRO d   7       4.716   6.635  31.619  0.00  0.00     0.179 C 
ATOM     19  CG  PRO d   7       2.696   6.774  32.964  0.00  0.00     0.022 C 
ATOM     20  CB  PRO d   7       3.700   7.634  32.193  0.00  0.00     0.037 C 
BRANCH  18  21
ATOM     21  C   PRO d   7       5.819   6.374  32.738  0.00  0.00     0.241 C 
ATOM     22  O   PRO d   7       5.987   7.195  33.648  0.00  0.00    -0.271 OA
ATOM     23  N   PHE d   8       6.627   5.254  32.838  0.00  0.00    -0.346 N 
ATOM     24  H   PHE d   8       7.242   5.443  33.621  0.00  0.00     0.163 HD
BRANCH  23  25
ATOM     25  CA  PHE d   8       7.198   4.273  31.855  0.00  0.00     0.180 C 
BRANCH  25  26
ATOM     26  CB  PHE d   8       7.832   4.995  30.585  0.00  0.00     0.073 C 
BRANCH  26  27
ATOM     27  CG  PHE d   8       9.320   5.388  30.484  0.00  0.00    -0.056 C 
ATOM     28  CD1 PHE d   8       9.882   6.302  31.377  0.00  0.00     0.007 C 
ATOM     29  CE1 PHE d   8      11.260   6.610  31.346  0.00  0.00     0.001 C 
ATOM     30  CZ  PHE d   8      12.102   6.070  30.370  0.00  0.00     0.000 C 
ATOM     31  CE2 PHE d   8      11.585   5.140  29.496  0.00  0.00     0.001 C 
ATOM     32  CD2 PHE d   8      10.251   4.759  29.627  0.00  0.00     0.007 C 
ENDBRANCH  26  27
ENDBRANCH  25  26
BRANCH  25  33
ATOM     33  C   PHE d   8       8.144   3.288  32.544  0.00  0.00     0.241 C 
ATOM     34  O   PHE d   8       8.674   3.596  33.600  0.00  0.00    -0.271 OA
ATOM     35  N   HIS d   9       8.494   2.088  32.014  0.00  0.00    -0.346 N 
ATOM     36  H   HIS d   9       9.064   1.636  32.712  0.00  0.00     0.163 HD
BRANCH  35  37
ATOM     37  CA  HIS d   9       7.951   1.234  30.940  0.00  0.00     0.182 C 
BRANCH  37  38
ATOM     38  CB  HIS d   9       6.499   0.687  30.928  0.00  0.00     0.093 C 
BRANCH  38  39
ATOM     39  CG  HIS d   9       6.366  -0.774  30.911  0.00  0.00     0.030 C 
ATOM     40  CD2 HIS d   9       5.963  -1.610  29.912  0.00  0.00     0.143 C 
ATOM     41  NE2 HIS d   9       6.166  -2.916  30.251  0.00  0.00    -0.254 NA
ATOM     42  CE1 HIS d   9       6.598  -2.882  31.488  0.00  0.00     0.207 C 
ATOM     43  ND1 HIS d   9       6.573  -1.608  31.981  0.00  0.00    -0.353 N 
ATOM     44  HD1 HIS d   9       6.705  -1.348  32.949  0.00  0.00     0.166 HD
ENDBRANCH  38  39
ENDBRANCH  37  38
BRANCH  37  45
ATOM     45  C   HIS d   9       8.536   1.384  29.490  0.00  0.00     0.241 C 
ATOM     46  O   HIS d   9       9.572   0.788  29.175  0.00  0.00    -0.271 OA
ATOM     47  N   LEU d  10       8.035   2.219  28.528  0.00  0.00    -0.345 N 
ATOM     48  H   LEU d  10       8.668   2.157  27.734  0.00  0.00     0.163 HD
BRANCH  47  49
ATOM     49  CA  LEU d  10       6.647   2.368  28.036  0.00  0.00     0.182 C 
BRANCH  49  50
ATOM     50  CB  LEU d  10       6.400   3.713  27.369  0.00  0.00     0.040 C 
BRANCH  50  51
ATOM     51  CG  LEU d  10       7.605   4.305  26.683  0.00  0.00    -0.020 C 
ATOM     52  CD1 LEU d  10       7.539   3.922  25.217  0.00  0.00     0.009 C 
ATOM     53  CD2 LEU d  10       7.690   5.788  27.000  0.00  0.00     0.009 C 
ENDBRANCH  50  51
ENDBRANCH  49  50
BRANCH  49  54
ATOM     54  C   LEU d  10       6.239   1.108  27.232  0.00  0.00     0.163 C 
ATOM     55  OXT LEU d  10       6.908   0.588  26.341  0.00  0.00    -0.648 OA
BRANCH  54  56
ATOM     56  O   LEU d  10       5.045   0.612  27.615  0.00  0.00    -0.775 OA
ATOM     57  H   LEU d  10       4.399   1.335  27.740  0.00  0.00     0.167 HD
ENDBRANCH  54  56
ENDBRANCH  49  54
ENDBRANCH  47  49
ENDBRANCH  37  45
ENDBRANCH  35  37
ENDBRANCH  25  33
ENDBRANCH  23  25
ENDBRANCH  18  21
ENDBRANCH   6  14
ENDBRANCH   4   6
ENDBRANCH   1   2
BRANCH   1  58
ATOM     58  N   ILE d   5      -1.330   6.978  29.386  0.00  0.00    -0.346 N 
ATOM     59  C   TYR d   4      -2.091   7.567  30.380  0.00  0.00     0.241 C 
ATOM     60  O   TYR d   4      -2.890   6.910  31.043  0.00  0.00    -0.271 OA
ATOM     61  H   ILE d   5      -0.470   7.468  29.155  0.00  0.00     0.163 HD
BRANCH  59  62
ATOM     62  CA  TYR d   4      -1.894   9.112  30.608  0.00  0.00     0.180 C 
BRANCH  62  63
ATOM     63  N   TYR d   4      -0.605   9.589  29.995  0.00  0.00    -0.346 N 
ATOM     64  C   VAL d   3       0.107  10.634  30.582  0.00  0.00     0.241 C 
ATOM     65  O   VAL d   3      -0.328  11.112  31.625  0.00  0.00    -0.271 OA
ATOM     66  H   TYR d   4      -0.572   9.577  28.984  0.00  0.00     0.163 HD
BRANCH  64  67
ATOM     67  CA  VAL d   3       1.413  11.192  29.851  0.00  0.00     0.180 C 
BRANCH  67  68
ATOM     68  N   VAL d   3       1.459  12.553  29.183  0.00  0.00    -0.346 N 
ATOM     69  C   ARG d   2       2.217  13.282  28.317  0.00  0.00     0.241 C 
ATOM     70  O   ARG d   2       1.966  14.496  28.321  0.00  0.00    -0.271 OA
ATOM     71  H   VAL d   3       0.968  13.266  29.724  0.00  0.00     0.163 HD
BRANCH  69  72
ATOM     72  CA  ARG d   2       3.124  12.645  27.259  0.00  0.00     0.176 C 
BRANCH  72  73
ATOM     73  N   ARG d   2       4.526  12.980  27.541  0.00  0.00    -0.346 N 
ATOM     74  C   ASP d   1       5.356  13.578  26.625  0.00  0.00     0.252 C 
ATOM     75  O   ASP d   1       5.100  13.674  25.422  0.00  0.00    -0.271 OA
ATOM     76  H   ARG d   2       4.699  13.226  28.511  0.00  0.00     0.163 HD
BRANCH  74  77
ATOM     77  CA  ASP d   1       6.708  14.089  27.192  0.00  0.00     0.318 C 
BRANCH  77  78
ATOM     78  N   ASP d   1       7.221  13.056  28.137  0.00  0.00     0.092 N 
ATOM     79  H1  ASP d   1       6.600  12.248  28.141  0.00  0.00     0.313 HD
ATOM     80  H2  ASP d   1       7.131  13.448  29.086  0.00  0.00     0.313 HD
ENDBRANCH  77  78
BRANCH  77  81
ATOM     81  CB  ASP d   1       7.710  14.315  26.055  0.00  0.00     0.155 C 
BRANCH  81  82
ATOM     82  CG  ASP d   1       8.661  13.161  25.916  0.00  0.00     0.141 C 
ATOM     83  OD2 ASP d   1       8.424  12.077  25.412  0.00  0.00    -0.650 OA
BRANCH  82  84
ATOM     84  OD1 ASP d   1       9.899  13.465  26.350  0.00  0.00    -0.776 OA
ATOM     85  HD1 ASP d   1      10.189  12.683  26.860  0.00  0.00     0.167 HD
ENDBRANCH  82  84
ENDBRANCH  81  82
ENDBRANCH  77  81
ENDBRANCH  74  77
ENDBRANCH  72  73
BRANCH  72  86
ATOM     86  CB  ARG d   2       2.705  11.214  26.867  0.00  0.00     0.037 C 
BRANCH  86  87
ATOM     87  CG  ARG d   2       1.808  10.931  25.650  0.00  0.00     0.024 C 
BRANCH  87  88
ATOM     88  CD  ARG d   2       0.881   9.726  25.760  0.00  0.00     0.152 C 
BRANCH  88  89
ATOM     89  NE  ARG d   2       0.904   9.206  27.117  0.00  0.00    -0.268 NA
ATOM     90  CZ  ARG d   2       1.641   8.251  27.484  0.00  0.00     0.143 C 
ATOM     91  NH1 ARG d   2       1.555   7.832  28.757  0.00  0.00    -0.278 NA
ATOM     92  NH2 ARG d   2       2.526   7.506  26.776  0.00  0.00    -0.278 NA
ATOM     93 1HH1 ARG d   2       1.047   8.531  29.320  0.00  0.00     0.126 HD
ATOM     94 2HH1 ARG d   2       2.386   7.480  29.197  0.00  0.00     0.126 HD
ATOM     95 1HH2 ARG d   2       2.808   7.900  25.883  0.00  0.00     0.126 HD
ATOM     96 2HH2 ARG d   2       3.326   7.152  27.301  0.00  0.00     0.126 HD
ENDBRANCH  88  89
ENDBRANCH  87  88
ENDBRANCH  86  87
ENDBRANCH  72  86
ENDBRANCH  69  72
ENDBRANCH  67  68
BRANCH  67  97
ATOM     97  CB  VAL d   3       2.619  11.272  30.855  0.00  0.00     0.009 C 
ATOM     98  CG1 VAL d   3       3.883  10.647  30.247  0.00  0.00     0.012 C 
ATOM     99  CG2 VAL d   3       2.914  12.642  31.459  0.00  0.00     0.012 C 
ENDBRANCH  67  97
ENDBRANCH  64  67
ENDBRANCH  62  63
BRANCH  62 100
ATOM    100  CB  TYR d   4      -3.109   9.958  30.104  0.00  0.00     0.073 C 
BRANCH 100 101
ATOM    101  CG  TYR d   4      -3.296  10.145  28.602  0.00  0.00    -0.056 A 
ATOM    102  CD1 TYR d   4      -2.919  11.338  27.958  0.00  0.00     0.010 A 
ATOM    103  CE1 TYR d   4      -3.038  11.481  26.567  0.00  0.00     0.037 A 
ATOM    104  CZ  TYR d   4      -3.548  10.447  25.802  0.00  0.00     0.065 A 
ATOM    105  CE2 TYR d   4      -3.907   9.251  26.400  0.00  0.00     0.037 A 
ATOM    106  CD2 TYR d   4      -3.752   9.108  27.784  0.00  0.00     0.010 A 
BRANCH 104 107
ATOM    107  OH  TYR d   4      -3.668  10.608  24.458  0.00  0.00    -0.361 OA
ATOM    108  HH  TYR d   4      -3.128   9.908  24.051  0.00  0.00     0.217 HD
ENDBRANCH 104 107
ENDBRANCH 100 101
ENDBRANCH  62 100
ENDBRANCH  59  62
ENDBRANCH   1  58
BRANCH   1 109
ATOM    109  CB  ILE d   5      -1.435   5.006  27.646  0.00  0.00     0.013 C 
ATOM    110  CG2 ILE d   5      -2.752   4.273  27.355  0.00  0.00     0.012 C 
BRANCH 109 111
ATOM    111  CG1 ILE d   5      -1.144   6.151  26.636  0.00  0.00     0.002 C 
ATOM    112  CD1 ILE d   5      -0.361   5.766  25.387  0.00  0.00     0.005 C 
ENDBRANCH 109 111
ENDBRANCH   1 109
TORSDOF 41
ENDMDL
MODEL 3
REMARK VINA RESULT:      -8.5      2.606      8.771
REMARK WARNING: 32 MAX_TORS EXCEEDED!!!
REMARK  41 active torsions:
REMARK  status: ('A' for Active; 'I' for Inactive)
REMARK    1  A    between atoms: CB_3  and  CG1_2 
REMARK    2  A    between atoms: CA_4  and  CB_3 
REMARK    3  A    between atoms: CA_4  and  C_6 
REMARK    4  A    between atoms: CA_4  and  N_7 
REMARK       I    between atoms: C_6  and  N_8 
REMARK       I    between atoms: N_7  and  C_10 
REMARK    5  A    between atoms: N_8  and  CA_11 
REMARK    6  A    between atoms: CA_12  and  C_10 
REMARK    7  A    between atoms: CA_11  and  CB_15 
REMARK    8  A    between atoms: CA_11  and  C_14 
REMARK    9  A    between atoms: CA_12  and  N_17 
REMARK   10  A    between atoms: CA_12  and  CB_16 
REMARK       I    between atoms: C_14  and  N_18 
REMARK   11  A    between atoms: CB_15  and  CG_20 
REMARK   12  A    between atoms: CB_16  and  CG_21 
REMARK       I    between atoms: N_17  and  C_22 
REMARK   13  A    between atoms: C_22  and  CA_29 
REMARK   14  A    between atoms: CA_24  and  C_33 
REMARK   15  A    between atoms: CA_29  and  N_39 
REMARK   16  A    between atoms: CA_29  and  CB_38 
REMARK       I    between atoms: C_33  and  N_40 
REMARK       I    between atoms: N_39  and  C_45 
REMARK   17  A    between atoms: N_40  and  CA_46 
REMARK   18  A    between atoms: CZ_42  and  OH_47 
REMARK   19  A    between atoms: CA_48  and  C_45 
REMARK   20  A    between atoms: CA_46  and  CB_51 
REMARK   21  A    between atoms: CA_46  and  C_50 
REMARK   22  A    between atoms: CA_48  and  N_52 
REMARK   23  A    between atoms: CA_48  and  CB_53 
REMARK       I    between atoms: C_50  and  N_54 
REMARK   24  A    between atoms: CB_51  and  CG_56 
REMARK       I    between atoms: N_52  and  C_57 
REMARK   25  A    between atoms: CB_53  and  CG_58 
REMARK   26  A    between atoms: N_54  and  CA_59 
REMARK   27  A    between atoms: C_57  and  CA_62 
REMARK   28  A    between atoms: CG_58  and  CD_64 
REMARK   29  A    between atoms: CA_59  and  CB_66 
REMARK   30  A    between atoms: CA_59  and  C_65 
REMARK   31  A    between atoms: CA_62  and  N_70 
REMARK   32  A    between atoms: CA_62  and  CB_69 
REMARK   33  A    between atoms: CD_64  and  NE_71 
REMARK       I    between atoms: C_65  and  N_72 
REMARK   34  A    between atoms: CB_66  and  CG_74 
REMARK   35  A    between atoms: CB_69  and  CG_76 
REMARK   36  A    between atoms: N_72  and  CA_78 
REMARK   37  A    between atoms: CG_76  and  OD1_82 
REMARK       I    between atoms: CZ_77  and  NH1_83 
REMARK       I    between atoms: CZ_77  and  NH2_84 
REMARK   38  A    between atoms: CA_78  and  CB_86 
REMARK   39  A    between atoms: CA_78  and  C_85 
REMARK   40  A    between atoms: C_85  and  O_90 
REMARK   41  A    between atoms: CB_86  and  CG_91 
ROOT
ATOM      1  CA  ILE d   5      -1.322   5.116  28.668  0.00  0.00     0.180 C 
ENDROOT
BRANCH   1   2
ATOM      2  C   ILE d   5      -0.194   4.609  29.629  0.00  0.00     0.241 C 
ATOM      3  O   ILE d   5      -0.451   4.228  30.769  0.00  0.00    -0.271 OA
ATOM      4  N   HIS d   6       1.095   4.735  29.171  0.00  0.00    -0.346 N 
ATOM      5  H   HIS d   6       1.235   4.976  28.206  0.00  0.00     0.163 HD
BRANCH   4   6
ATOM      6  CA  HIS d   6       2.271   4.024  29.694  0.00  0.00     0.182 C 
BRANCH   6   7
ATOM      7  CB  HIS d   6       2.680   3.106  28.471  0.00  0.00     0.087 C 
BRANCH   7   8
ATOM      8  CG  HIS d   6       2.240   1.692  28.328  0.00  0.00     0.010 C 
ATOM      9  CD2 HIS d   6       1.004   1.073  28.417  0.00  0.00     0.136 C 
ATOM     10  NE2 HIS d   6       1.111  -0.239  28.029  0.00  0.00    -0.260 NA
ATOM     11  CE1 HIS d   6       2.373  -0.391  27.714  0.00  0.00     0.180 C 
ATOM     12  ND1 HIS d   6       3.097   0.598  28.334  0.00  0.00    -0.256 NA
ATOM     13  HD1 HIS d   6       3.524   0.340  29.209  0.00  0.00     0.134 HD
ENDBRANCH   7   8
ENDBRANCH   6   7
BRANCH   6  14
ATOM     14  C   HIS d   6       3.314   5.194  30.038  0.00  0.00     0.243 C 
ATOM     15  O   HIS d   6       3.724   5.914  29.116  0.00  0.00    -0.271 OA
ATOM     16  N   PRO d   7       3.769   5.451  31.359  0.00  0.00    -0.337 N 
ATOM     17  CD  PRO d   7       2.932   5.279  32.548  0.00  0.00     0.127 C 
ATOM     18  CA  PRO d   7       4.659   6.649  31.597  0.00  0.00     0.179 C 
ATOM     19  CG  PRO d   7       2.741   6.699  33.089  0.00  0.00     0.022 C 
ATOM     20  CB  PRO d   7       3.637   7.601  32.238  0.00  0.00     0.037 C 
BRANCH  18  21
ATOM     21  C   PRO d   7       5.854   6.461  32.632  0.00  0.00     0.241 C 
ATOM     22  O   PRO d   7       6.073   7.322  33.493  0.00  0.00    -0.271 OA
ATOM     23  N   PHE d   8       6.697   5.365  32.710  0.00  0.00    -0.346 N 
ATOM     24  H   PHE d   8       7.368   5.600  33.433  0.00  0.00     0.163 HD
BRANCH  23  25
ATOM     25  CA  PHE d   8       7.213   4.357  31.724  0.00  0.00     0.180 C 
BRANCH  25  26
ATOM     26  CB  PHE d   8       7.903   5.048  30.465  0.00  0.00     0.073 C 
BRANCH  26  27
ATOM     27  CG  PHE d   8       9.404   5.400  30.404  0.00  0.00    -0.056 C 
ATOM     28  CD1 PHE d   8       9.928   6.441  31.172  0.00  0.00     0.007 C 
ATOM     29  CE1 PHE d   8      11.313   6.721  31.186  0.00  0.00     0.001 C 
ATOM     30  CZ  PHE d   8      12.203   6.016  30.372  0.00  0.00     0.000 C 
ATOM     31  CE2 PHE d   8      11.722   4.963  29.627  0.00  0.00     0.001 C 
ATOM     32  CD2 PHE d   8      10.373   4.626  29.727  0.00  0.00     0.007 C 
ENDBRANCH  26  27
ENDBRANCH  25  26
BRANCH  25  33
ATOM     33  C   PHE d   8       8.088   3.308  32.412  0.00  0.00     0.241 C 
ATOM     34  O   PHE d   8       8.596   3.558  33.494  0.00  0.00    -0.271 OA
ATOM     35  N   HIS d   9       8.401   2.110  31.855  0.00  0.00    -0.346 N 
ATOM     36  H   HIS d   9       8.926   1.611  32.556  0.00  0.00     0.163 HD
BRANCH  35  37
ATOM     37  CA  HIS d   9       7.857   1.316  30.737  0.00  0.00     0.182 C 
BRANCH  37  38
ATOM     38  CB  HIS d   9       6.340   1.087  30.502  0.00  0.00     0.093 C 
BRANCH  38  39
ATOM     39  CG  HIS d   9       5.906  -0.314  30.444  0.00  0.00     0.030 C 
ATOM     40  CD2 HIS d   9       5.564  -1.171  31.447  0.00  0.00     0.143 C 
ATOM     41  NE2 HIS d   9       5.035  -2.326  30.948  0.00  0.00    -0.254 NA
ATOM     42  CE1 HIS d   9       5.144  -2.214  29.647  0.00  0.00     0.207 C 
ATOM     43  ND1 HIS d   9       5.822  -1.078  29.308  0.00  0.00    -0.353 N 
ATOM     44  HD1 HIS d   9       6.170  -0.852  28.386  0.00  0.00     0.166 HD
ENDBRANCH  38  39
ENDBRANCH  37  38
BRANCH  37  45
ATOM     45  C   HIS d   9       8.678   1.237  29.400  0.00  0.00     0.241 C 
ATOM     46  O   HIS d   9       9.577   0.398  29.273  0.00  0.00    -0.271 OA
ATOM     47  N   LEU d  10       8.547   2.106  28.350  0.00  0.00    -0.345 N 
ATOM     48  H   LEU d  10       9.261   1.849  27.672  0.00  0.00     0.163 HD
BRANCH  47  49
ATOM     49  CA  LEU d  10       7.328   2.544  27.633  0.00  0.00     0.182 C 
BRANCH  49  50
ATOM     50  CB  LEU d  10       7.579   3.733  26.717  0.00  0.00     0.040 C 
BRANCH  50  51
ATOM     51  CG  LEU d  10       6.740   4.948  27.022  0.00  0.00    -0.020 C 
ATOM     52  CD1 LEU d  10       7.636   6.167  26.919  0.00  0.00     0.009 C 
ATOM     53  CD2 LEU d  10       5.496   4.937  26.151  0.00  0.00     0.009 C 
ENDBRANCH  50  51
ENDBRANCH  49  50
BRANCH  49  54
ATOM     54  C   LEU d  10       6.623   1.318  27.002  0.00  0.00     0.163 C 
ATOM     55  OXT LEU d  10       5.473   1.307  26.566  0.00  0.00    -0.648 OA
BRANCH  54  56
ATOM     56  O   LEU d  10       7.411   0.224  26.969  0.00  0.00    -0.775 OA
ATOM     57  H   LEU d  10       6.911  -0.548  26.643  0.00  0.00     0.167 HD
ENDBRANCH  54  56
ENDBRANCH  49  54
ENDBRANCH  47  49
ENDBRANCH  37  45
ENDBRANCH  35  37
ENDBRANCH  25  33
ENDBRANCH  23  25
ENDBRANCH  18  21
ENDBRANCH   6  14
ENDBRANCH   4   6
ENDBRANCH   1   2
BRANCH   1  58
ATOM     58  N   ILE d   5      -1.601   6.511  29.073  0.00  0.00    -0.346 N 
ATOM     59  C   TYR d   4      -2.491   6.867  30.071  0.00  0.00     0.241 C 
ATOM     60  O   TYR d   4      -3.213   6.030  30.607  0.00  0.00    -0.271 OA
ATOM     61  H   ILE d   5      -0.815   7.143  28.951  0.00  0.00     0.163 HD
BRANCH  59  62
ATOM     62  CA  TYR d   4      -2.541   8.388  30.473  0.00  0.00     0.180 C 
BRANCH  62  63
ATOM     63  N   TYR d   4      -1.238   9.073  30.160  0.00  0.00    -0.346 N 
ATOM     64  C   VAL d   3      -0.668   9.952  31.080  0.00  0.00     0.241 C 
ATOM     65  O   VAL d   3      -1.238  10.108  32.155  0.00  0.00    -0.271 OA
ATOM     66  H   TYR d   4      -1.105   9.337  29.192  0.00  0.00     0.163 HD
BRANCH  64  67
ATOM     67  CA  VAL d   3       0.658  10.747  30.678  0.00  0.00     0.180 C 
BRANCH  67  68
ATOM     68  N   VAL d   3       0.678  11.811  29.597  0.00  0.00    -0.346 N 
ATOM     69  C   ARG d   2       1.548  12.518  28.824  0.00  0.00     0.241 C 
ATOM     70  O   ARG d   2       1.050  13.514  28.279  0.00  0.00    -0.271 OA
ATOM     71  H   VAL d   3      -0.149  12.409  29.628  0.00  0.00     0.163 HD
BRANCH  69  72
ATOM     72  CA  ARG d   2       2.945  12.006  28.455  0.00  0.00     0.176 C 
BRANCH  72  73
ATOM     73  N   ARG d   2       2.874  11.214  27.222  0.00  0.00    -0.346 N 
ATOM     74  C   ASP d   1       2.762   9.845  27.210  0.00  0.00     0.252 C 
ATOM     75  O   ASP d   1       2.952   9.131  28.198  0.00  0.00    -0.271 OA
ATOM     76  H   ARG d   2       2.412  11.695  26.454  0.00  0.00     0.163 HD
BRANCH  74  77
ATOM     77  CA  ASP d   1       2.436   9.220  25.827  0.00  0.00     0.318 C 
BRANCH  77  78
ATOM     78  N   ASP d   1       2.984  10.127  24.780  0.00  0.00     0.092 N 
ATOM     79  H1  ASP d   1       2.432  10.982  24.735  0.00  0.00     0.313 HD
ATOM     80  H2  ASP d   1       2.816   9.671  23.871  0.00  0.00     0.313 HD
ENDBRANCH  77  78
BRANCH  77  81
ATOM     81  CB  ASP d   1       3.068   7.828  25.711  0.00  0.00     0.155 C 
BRANCH  81  82
ATOM     82  CG  ASP d   1       2.025   6.748  25.663  0.00  0.00     0.141 C 
ATOM     83  OD2 ASP d   1       1.956   5.767  26.383  0.00  0.00    -0.650 OA
BRANCH  82  84
ATOM     84  OD1 ASP d   1       1.065   7.006  24.754  0.00  0.00    -0.776 OA
ATOM     85  HD1 ASP d   1       0.501   7.689  25.168  0.00  0.00     0.167 HD
ENDBRANCH  82  84
ENDBRANCH  81  82
ENDBRANCH  77  81
ENDBRANCH  74  77
ENDBRANCH  72  73
BRANCH  72  86
ATOM     86  CB  ARG d   2       4.062  13.046  28.678  0.00  0.00     0.037 C 
BRANCH  86  87
ATOM     87  CG  ARG d   2       5.548  12.656  28.695  0.00  0.00     0.024 C 
BRANCH  87  88
ATOM     88  CD  ARG d   2       5.871  11.247  29.177  0.00  0.00     0.152 C 
BRANCH  88  89
ATOM     89  NE  ARG d   2       5.665  11.155  30.613  0.00  0.00    -0.268 NA
ATOM     90  CZ  ARG d   2       6.188  10.263  31.336  0.00  0.00     0.143 C 
ATOM     91  NH1 ARG d   2       5.901  10.257  32.648  0.00  0.00    -0.278 NA
ATOM     92  NH2 ARG d   2       7.001   9.231  31.001  0.00  0.00    -0.278 NA
ATOM     93 1HH1 ARG d   2       5.465  11.153  32.913  0.00  0.00     0.126 HD
ATOM     94 2HH1 ARG d   2       6.610   9.944  33.285  0.00  0.00     0.126 HD
ATOM     95 1HH2 ARG d   2       7.436   9.300  30.086  0.00  0.00     0.126 HD
ATOM     96 2HH2 ARG d   2       7.671   8.945  31.716  0.00  0.00     0.126 HD
ENDBRANCH  88  89
ENDBRANCH  87  88
ENDBRANCH  86  87
ENDBRANCH  72  86
ENDBRANCH  69  72
ENDBRANCH  67  68
BRANCH  67  97
ATOM     97  CB  VAL d   3       1.239  11.519  31.917  0.00  0.00     0.009 C 
ATOM     98  CG1 VAL d   3       1.480  10.563  33.095  0.00  0.00     0.012 C 
ATOM     99  CG2 VAL d   3       2.457  12.401  31.662  0.00  0.00     0.012 C 
ENDBRANCH  67  97
ENDBRANCH  64  67
ENDBRANCH  62  63
BRANCH  62 100
ATOM    100  CB  TYR d   4      -3.748   9.145  29.829  0.00  0.00     0.073 C 
BRANCH 100 101
ATOM    101  CG  TYR d   4      -3.685   9.492  28.345  0.00  0.00    -0.056 A 
ATOM    102  CD1 TYR d   4      -4.131   8.592  27.360  0.00  0.00     0.010 A 
ATOM    103  CE1 TYR d   4      -4.126   8.942  26.001  0.00  0.00     0.037 A 
ATOM    104  CZ  TYR d   4      -3.661  10.182  25.603  0.00  0.00     0.065 A 
ATOM    105  CE2 TYR d   4      -3.236  11.101  26.547  0.00  0.00     0.037 A 
ATOM    106  CD2 TYR d   4      -3.278  10.753  27.903  0.00  0.00     0.010 A 
BRANCH 104 107
ATOM    107  OH  TYR d   4      -3.651  10.498  24.282  0.00  0.00    -0.361 OA
ATOM    108  HH  TYR d   4      -3.620  11.471  24.234  0.00  0.00     0.217 HD
ENDBRANCH 104 107
ENDBRANCH 100 101
ENDBRANCH  62 100
ENDBRANCH  59  62
ENDBRANCH   1  58
BRANCH   1 109
ATOM    109  CB  ILE d   5      -1.091   4.800  27.139  0.00  0.00     0.013 C 
ATOM    110  CG2 ILE d   5      -1.233   3.319  26.761  0.00  0.00     0.012 C 
BRANCH 109 111
ATOM    111  CG1 ILE d   5      -1.956   5.737  26.249  0.00  0.00     0.002 C 
ATOM    112  CD1 ILE d   5      -2.847   5.055  25.219  0.00  0.00     0.005 C 
ENDBRANCH 109 111
ENDBRANCH   1 109
TORSDOF 41
ENDMDL
MODEL 4
REMARK VINA RESULT:      -8.5      2.676      9.183
REMARK WARNING: 32 MAX_TORS EXCEEDED!!!
REMARK  41 active torsions:
REMARK  status: ('A' for Active; 'I' for Inactive)
REMARK    1  A    between atoms: CB_3  and  CG1_2 
REMARK    2  A    between atoms: CA_4  and  CB_3 
REMARK    3  A    between atoms: CA_4  and  C_6 
REMARK    4  A    between atoms: CA_4  and  N_7 
REMARK       I    between atoms: C_6  and  N_8 
REMARK       I    between atoms: N_7  and  C_10 
REMARK    5  A    between atoms: N_8  and  CA_11 
REMARK    6  A    between atoms: CA_12  and  C_10 
REMARK    7  A    between atoms: CA_11  and  CB_15 
REMARK    8  A    between atoms: CA_11  and  C_14 
REMARK    9  A    between atoms: CA_12  and  N_17 
REMARK   10  A    between atoms: CA_12  and  CB_16 
REMARK       I    between atoms: C_14  and  N_18 
REMARK   11  A    between atoms: CB_15  and  CG_20 
REMARK   12  A    between atoms: CB_16  and  CG_21 
REMARK       I    between atoms: N_17  and  C_22 
REMARK   13  A    between atoms: C_22  and  CA_29 
REMARK   14  A    between atoms: CA_24  and  C_33 
REMARK   15  A    between atoms: CA_29  and  N_39 
REMARK   16  A    between atoms: CA_29  and  CB_38 
REMARK       I    between atoms: C_33  and  N_40 
REMARK       I    between atoms: N_39  and  C_45 
REMARK   17  A    between atoms: N_40  and  CA_46 
REMARK   18  A    between atoms: CZ_42  and  OH_47 
REMARK   19  A    between atoms: CA_48  and  C_45 
REMARK   20  A    between atoms: CA_46  and  CB_51 
REMARK   21  A    between atoms: CA_46  and  C_50 
REMARK   22  A    between atoms: CA_48  and  N_52 
REMARK   23  A    between atoms: CA_48  and  CB_53 
REMARK       I    between atoms: C_50  and  N_54 
REMARK   24  A    between atoms: CB_51  and  CG_56 
REMARK       I    between atoms: N_52  and  C_57 
REMARK   25  A    between atoms: CB_53  and  CG_58 
REMARK   26  A    between atoms: N_54  and  CA_59 
REMARK   27  A    between atoms: C_57  and  CA_62 
REMARK   28  A    between atoms: CG_58  and  CD_64 
REMARK   29  A    between atoms: CA_59  and  CB_66 
REMARK   30  A    between atoms: CA_59  and  C_65 
REMARK   31  A    between atoms: CA_62  and  N_70 
REMARK   32  A    between atoms: CA_62  and  CB_69 
REMARK   33  A    between atoms: CD_64  and  NE_71 
REMARK       I    between atoms: C_65  and  N_72 
REMARK   34  A    between atoms: CB_66  and  CG_74 
REMARK   35  A    between atoms: CB_69  and  CG_76 
REMARK   36  A    between atoms: N_72  and  CA_78 
REMARK   37  A    between atoms: CG_76  and  OD1_82 
REMARK       I    between atoms: CZ_77  and  NH1_83 
REMARK       I    between atoms: CZ_77  and  NH2_84 
REMARK   38  A    between atoms: CA_78  and  CB_86 
REMARK   39  A    between atoms: CA_78  and  C_85 
REMARK   40  A    between atoms: C_85  and  O_90 
REMARK   41  A    between atoms: CB_86  and  CG_91 
ROOT
ATOM      1  CA  ILE d   5      -1.097   4.451  28.879  0.00  0.00     0.180 C 
ENDROOT
BRANCH   1   2
ATOM      2  C   ILE d   5      -0.072   4.043  29.990  0.00  0.00     0.241 C 
ATOM      3  O   ILE d   5      -0.352   4.144  31.183  0.00  0.00    -0.271 OA
ATOM      4  N   HIS d   6       1.184   3.693  29.558  0.00  0.00    -0.346 N 
ATOM      5  H   HIS d   6       1.326   3.552  28.574  0.00  0.00     0.163 HD
BRANCH   4   6
ATOM      6  CA  HIS d   6       2.184   2.940  30.329  0.00  0.00     0.182 C 
BRANCH   6   7
ATOM      7  CB  HIS d   6       2.201   1.544  29.585  0.00  0.00     0.087 C 
BRANCH   7   8
ATOM      8  CG  HIS d   6       2.072   1.402  28.110  0.00  0.00     0.010 C 
ATOM      9  CD2 HIS d   6       1.945   0.305  27.273  0.00  0.00     0.136 C 
ATOM     10  NE2 HIS d   6       1.686   0.724  25.993  0.00  0.00    -0.260 NA
ATOM     11  CE1 HIS d   6       1.655   2.031  26.069  0.00  0.00     0.180 C 
ATOM     12  ND1 HIS d   6       2.339   2.416  27.197  0.00  0.00    -0.256 NA
ATOM     13  HD1 HIS d   6       3.300   2.677  27.053  0.00  0.00     0.134 HD
ENDBRANCH   7   8
ENDBRANCH   6   7
BRANCH   6  14
ATOM     14  C   HIS d   6       3.528   3.803  30.175  0.00  0.00     0.243 C 
ATOM     15  O   HIS d   6       3.710   4.436  29.125  0.00  0.00    -0.271 OA
ATOM     16  N   PRO d   7       4.506   3.889  31.202  0.00  0.00    -0.337 N 
ATOM     17  CD  PRO d   7       4.180   3.882  32.630  0.00  0.00     0.127 C 
ATOM     18  CA  PRO d   7       5.679   4.822  31.007  0.00  0.00     0.179 C 
ATOM     19  CG  PRO d   7       4.561   5.284  33.115  0.00  0.00     0.022 C 
ATOM     20  CB  PRO d   7       5.248   5.970  31.932  0.00  0.00     0.037 C 
BRANCH  18  21
ATOM     21  C   PRO d   7       7.098   4.305  31.513  0.00  0.00     0.241 C 
ATOM     22  O   PRO d   7       7.543   4.680  32.605  0.00  0.00    -0.271 OA
ATOM     23  N   PHE d   8       7.917   3.404  30.853  0.00  0.00    -0.346 N 
ATOM     24  H   PHE d   8       8.755   3.346  31.422  0.00  0.00     0.163 HD
BRANCH  23  25
ATOM     25  CA  PHE d   8       8.149   3.045  29.415  0.00  0.00     0.180 C 
BRANCH  25  26
ATOM     26  CB  PHE d   8       9.172   4.038  28.704  0.00  0.00     0.073 C 
BRANCH  26  27
ATOM     27  CG  PHE d   8      10.430   4.601  29.396  0.00  0.00    -0.056 C 
ATOM     28  CD1 PHE d   8      11.691   4.056  29.145  0.00  0.00     0.007 C 
ATOM     29  CE1 PHE d   8      12.859   4.612  29.709  0.00  0.00     0.001 C 
ATOM     30  CZ  PHE d   8      12.794   5.685  30.602  0.00  0.00     0.000 C 
ATOM     31  CE2 PHE d   8      11.569   6.266  30.845  0.00  0.00     0.001 C 
ATOM     32  CD2 PHE d   8      10.447   5.777  30.178  0.00  0.00     0.007 C 
ENDBRANCH  26  27
ENDBRANCH  25  26
BRANCH  25  33
ATOM     33  C   PHE d   8       8.516   1.567  29.266  0.00  0.00     0.241 C 
ATOM     34  O   PHE d   8       9.622   1.181  29.610  0.00  0.00    -0.271 OA
ATOM     35  N   HIS d   9       7.697   0.644  28.701  0.00  0.00    -0.346 N 
ATOM     36  H   HIS d   9       8.170  -0.241  28.802  0.00  0.00     0.163 HD
BRANCH  35  37
ATOM     37  CA  HIS d   9       6.258   0.597  28.379  0.00  0.00     0.182 C 
BRANCH  37  38
ATOM     38  CB  HIS d   9       5.488   1.767  27.711  0.00  0.00     0.093 C 
BRANCH  38  39
ATOM     39  CG  HIS d   9       5.616   1.866  26.252  0.00  0.00     0.030 C 
ATOM     40  CD2 HIS d   9       6.394   2.688  25.491  0.00  0.00     0.143 C 
ATOM     41  NE2 HIS d   9       6.354   2.324  24.176  0.00  0.00    -0.254 NA
ATOM     42  CE1 HIS d   9       5.482   1.348  24.121  0.00  0.00     0.207 C 
ATOM     43  ND1 HIS d   9       4.886   1.153  25.335  0.00  0.00    -0.353 N 
ATOM     44  HD1 HIS d   9       4.076   0.574  25.507  0.00  0.00     0.166 HD
ENDBRANCH  38  39
ENDBRANCH  37  38
BRANCH  37  45
ATOM     45  C   HIS d   9       5.601  -0.795  28.064  0.00  0.00     0.241 C 
ATOM     46  O   HIS d   9       5.837  -1.363  26.992  0.00  0.00    -0.271 OA
ATOM     47  N   LEU d  10       4.683  -1.424  28.861  0.00  0.00    -0.345 N 
ATOM     48  H   LEU d  10       4.387  -2.257  28.357  0.00  0.00     0.163 HD
BRANCH  47  49
ATOM     49  CA  LEU d  10       4.735  -1.722  30.310  0.00  0.00     0.182 C 
BRANCH  49  50
ATOM     50  CB  LEU d  10       3.695  -2.745  30.739  0.00  0.00     0.040 C 
BRANCH  50  51
ATOM     51  CG  LEU d  10       2.538  -2.173  31.520  0.00  0.00    -0.020 C 
ATOM     52  CD1 LEU d  10       3.042  -0.957  32.272  0.00  0.00     0.009 C 
ATOM     53  CD2 LEU d  10       1.356  -1.962  30.590  0.00  0.00     0.009 C 
ENDBRANCH  50  51
ENDBRANCH  49  50
BRANCH  49  54
ATOM     54  C   LEU d  10       6.199  -2.000  30.734  0.00  0.00     0.163 C 
ATOM     55  OXT LEU d  10       6.915  -1.223  31.365  0.00  0.00    -0.648 OA
BRANCH  54  56
ATOM     56  O   LEU d  10       6.633  -3.214  30.340  0.00  0.00    -0.775 OA
ATOM     57  H   LEU d  10       7.358  -3.522  30.917  0.00  0.00     0.167 HD
ENDBRANCH  54  56
ENDBRANCH  49  54
ENDBRANCH  47  49
ENDBRANCH  37  45
ENDBRANCH  35  37
ENDBRANCH  25  33
ENDBRANCH  23  25
ENDBRANCH  18  21
ENDBRANCH   6  14
ENDBRANCH   4   6
ENDBRANCH   1   2
BRANCH   1  58
ATOM     58  N   ILE d   5      -1.098   5.930  28.851  0.00  0.00    -0.346 N 
ATOM     59  C   TYR d   4      -2.127   6.715  29.338  0.00  0.00     0.241 C 
ATOM     60  O   TYR d   4      -3.184   6.215  29.716  0.00  0.00    -0.271 OA
ATOM     61  H   ILE d   5      -0.173   6.346  28.913  0.00  0.00     0.163 HD
BRANCH  59  62
ATOM     62  CA  TYR d   4      -1.885   8.270  29.371  0.00  0.00     0.180 C 
BRANCH  62  63
ATOM     63  N   TYR d   4      -0.488   8.609  28.924  0.00  0.00    -0.346 N 
ATOM     64  C   VAL d   3       0.395   9.236  29.801  0.00  0.00     0.241 C 
ATOM     65  O   VAL d   3       0.011   9.457  30.945  0.00  0.00    -0.271 OA
ATOM     66  H   TYR d   4      -0.397   8.899  27.959  0.00  0.00     0.163 HD
BRANCH  64  67
ATOM     67  CA  VAL d   3       1.834   9.682  29.268  0.00  0.00     0.180 C 
BRANCH  67  68
ATOM     68  N   VAL d   3       2.782   8.724  28.571  0.00  0.00    -0.346 N 
ATOM     69  C   ARG d   2       4.112   8.505  28.378  0.00  0.00     0.241 C 
ATOM     70  O   ARG d   2       4.368   7.720  27.453  0.00  0.00    -0.271 OA
ATOM     71  H   VAL d   3       2.348   8.267  27.768  0.00  0.00     0.163 HD
BRANCH  69  72
ATOM     72  CA  ARG d   2       5.190   8.982  29.357  0.00  0.00     0.176 C 
BRANCH  72  73
ATOM     73  N   ARG d   2       6.203   9.764  28.637  0.00  0.00    -0.346 N 
ATOM     74  C   ASP d   1       7.550   9.656  28.880  0.00  0.00     0.252 C 
ATOM     75  O   ASP d   1       8.029   9.091  29.866  0.00  0.00    -0.271 OA
ATOM     76  H   ARG d   2       5.949   9.973  27.676  0.00  0.00     0.163 HD
BRANCH  74  77
ATOM     77  CA  ASP d   1       8.467  10.360  27.844  0.00  0.00     0.318 C 
BRANCH  77  78
ATOM     78  N   ASP d   1       8.513  11.808  28.192  0.00  0.00     0.092 N 
ATOM     79  H1  ASP d   1       8.494  12.372  27.344  0.00  0.00     0.313 HD
ATOM     80  H2  ASP d   1       9.444  11.990  28.593  0.00  0.00     0.313 HD
ENDBRANCH  77  78
BRANCH  77  81
ATOM     81  CB  ASP d   1       9.876   9.757  27.884  0.00  0.00     0.155 C 
BRANCH  81  82
ATOM     82  CG  ASP d   1      10.935  10.815  27.761  0.00  0.00     0.141 C 
ATOM     83  OD2 ASP d   1      11.259  11.408  26.746  0.00  0.00    -0.650 OA
BRANCH  82  84
ATOM     84  OD1 ASP d   1      11.480  11.133  28.951  0.00  0.00    -0.776 OA
ATOM     85  HD1 ASP d   1      11.470  10.301  29.465  0.00  0.00     0.167 HD
ENDBRANCH  82  84
ENDBRANCH  81  82
ENDBRANCH  77  81
ENDBRANCH  74  77
ENDBRANCH  72  73
BRANCH  72  86
ATOM     86  CB  ARG d   2       4.626   9.455  30.713  0.00  0.00     0.037 C 
BRANCH  86  87
ATOM     87  CG  ARG d   2       4.911  10.859  31.270  0.00  0.00     0.024 C 
BRANCH  87  88
ATOM     88  CD  ARG d   2       4.112  11.272  32.501  0.00  0.00     0.152 C 
BRANCH  88  89
ATOM     89  NE  ARG d   2       2.897  11.958  32.095  0.00  0.00    -0.268 NA
ATOM     90  CZ  ARG d   2       1.747  11.641  32.509  0.00  0.00     0.143 C 
ATOM     91  NH1 ARG d   2       0.691  12.326  32.041  0.00  0.00    -0.278 NA
ATOM     92  NH2 ARG d   2       1.364  10.656  33.358  0.00  0.00    -0.278 NA
ATOM     93 1HH1 ARG d   2       1.013  13.187  31.574  0.00  0.00     0.126 HD
ATOM     94 2HH1 ARG d   2      -0.093  12.462  32.653  0.00  0.00     0.126 HD
ATOM     95 1HH2 ARG d   2       2.108  10.251  33.917  0.00  0.00     0.126 HD
ATOM     96 2HH2 ARG d   2       0.535  10.855  33.920  0.00  0.00     0.126 HD
ENDBRANCH  88  89
ENDBRANCH  87  88
ENDBRANCH  86  87
ENDBRANCH  72  86
ENDBRANCH  69  72
ENDBRANCH  67  68
BRANCH  67  97
ATOM     97  CB  VAL d   3       1.701  10.843  28.217  0.00  0.00     0.009 C 
ATOM     98  CG1 VAL d   3       2.734  11.948  28.486  0.00  0.00     0.012 C 
ATOM     99  CG2 VAL d   3       1.696  10.435  26.747  0.00  0.00     0.012 C 
ENDBRANCH  67  97
ENDBRANCH  64  67
ENDBRANCH  62  63
BRANCH  62 100
ATOM    100  CB  TYR d   4      -2.952   9.066  28.549  0.00  0.00     0.073 C 
BRANCH 100 101
ATOM    101  CG  TYR d   4      -2.519  10.341  27.832  0.00  0.00    -0.056 A 
ATOM    102  CD1 TYR d   4      -2.044  10.315  26.509  0.00  0.00     0.010 A 
ATOM    103  CE1 TYR d   4      -1.705  11.499  25.836  0.00  0.00     0.037 A 
ATOM    104  CZ  TYR d   4      -1.817  12.721  26.475  0.00  0.00     0.065 A 
ATOM    105  CE2 TYR d   4      -2.303  12.785  27.770  0.00  0.00     0.037 A 
ATOM    106  CD2 TYR d   4      -2.671  11.600  28.419  0.00  0.00     0.010 A 
BRANCH 104 107
ATOM    107  OH  TYR d   4      -1.471  13.855  25.813  0.00  0.00    -0.361 OA
ATOM    108  HH  TYR d   4      -0.507  13.809  25.679  0.00  0.00     0.217 HD
ENDBRANCH 104 107
ENDBRANCH 100 101
ENDBRANCH  62 100
ENDBRANCH  59  62
ENDBRANCH   1  58
BRANCH   1 109
ATOM    109  CB  ILE d   5      -0.955   3.666  27.516  0.00  0.00     0.013 C 
ATOM    110  CG2 ILE d   5      -1.589   2.268  27.512  0.00  0.00     0.012 C 
BRANCH 109 111
ATOM    111  CG1 ILE d   5      -1.425   4.547  26.325  0.00  0.00     0.002 C 
ATOM    112  CD1 ILE d   5      -0.328   5.145  25.454  0.00  0.00     0.005 C 
ENDBRANCH 109 111
ENDBRANCH   1 109
TORSDOF 41
ENDMDL
MODEL 5
REMARK VINA RESULT:      -8.4      2.738     10.491
REMARK WARNING: 32 MAX_TORS EXCEEDED!!!
REMARK  41 active torsions:
REMARK  status: ('A' for Active; 'I' for Inactive)
REMARK    1  A    between atoms: CB_3  and  CG1_2 
REMARK    2  A    between atoms: CA_4  and  CB_3 
REMARK    3  A    between atoms: CA_4  and  C_6 
REMARK    4  A    between atoms: CA_4  and  N_7 
REMARK       I    between atoms: C_6  and  N_8 
REMARK       I    between atoms: N_7  and  C_10 
REMARK    5  A    between atoms: N_8  and  CA_11 
REMARK    6  A    between atoms: CA_12  and  C_10 
REMARK    7  A    between atoms: CA_11  and  CB_15 
REMARK    8  A    between atoms: CA_11  and  C_14 
REMARK    9  A    between atoms: CA_12  and  N_17 
REMARK   10  A    between atoms: CA_12  and  CB_16 
REMARK       I    between atoms: C_14  and  N_18 
REMARK   11  A    between atoms: CB_15  and  CG_20 
REMARK   12  A    between atoms: CB_16  and  CG_21 
REMARK       I    between atoms: N_17  and  C_22 
REMARK   13  A    between atoms: C_22  and  CA_29 
REMARK   14  A    between atoms: CA_24  and  C_33 
REMARK   15  A    between atoms: CA_29  and  N_39 
REMARK   16  A    between atoms: CA_29  and  CB_38 
REMARK       I    between atoms: C_33  and  N_40 
REMARK       I    between atoms: N_39  and  C_45 
REMARK   17  A    between atoms: N_40  and  CA_46 
REMARK   18  A    between atoms: CZ_42  and  OH_47 
REMARK   19  A    between atoms: CA_48  and  C_45 
REMARK   20  A    between atoms: CA_46  and  CB_51 
REMARK   21  A    between atoms: CA_46  and  C_50 
REMARK   22  A    between atoms: CA_48  and  N_52 
REMARK   23  A    between atoms: CA_48  and  CB_53 
REMARK       I    between atoms: C_50  and  N_54 
REMARK   24  A    between atoms: CB_51  and  CG_56 
REMARK       I    between atoms: N_52  and  C_57 
REMARK   25  A    between atoms: CB_53  and  CG_58 
REMARK   26  A    between atoms: N_54  and  CA_59 
REMARK   27  A    between atoms: C_57  and  CA_62 
REMARK   28  A    between atoms: CG_58  and  CD_64 
REMARK   29  A    between atoms: CA_59  and  CB_66 
REMARK   30  A    between atoms: CA_59  and  C_65 
REMARK   31  A    between atoms: CA_62  and  N_70 
REMARK   32  A    between atoms: CA_62  and  CB_69 
REMARK   33  A    between atoms: CD_64  and  NE_71 
REMARK       I    between atoms: C_65  and  N_72 
REMARK   34  A    between atoms: CB_66  and  CG_74 
REMARK   35  A    between atoms: CB_69  and  CG_76 
REMARK   36  A    between atoms: N_72  and  CA_78 
REMARK   37  A    between atoms: CG_76  and  OD1_82 
REMARK       I    between atoms: CZ_77  and  NH1_83 
REMARK       I    between atoms: CZ_77  and  NH2_84 
REMARK   38  A    between atoms: CA_78  and  CB_86 
REMARK   39  A    between atoms: CA_78  and  C_85 
REMARK   40  A    between atoms: C_85  and  O_90 
REMARK   41  A    between atoms: CB_86  and  CG_91 
ROOT
ATOM      1  CA  ILE d   5       5.253   6.482  25.517  0.00  0.00     0.180 C 
ENDROOT
BRANCH   1   2
ATOM      2  C   ILE d   5       4.092   5.451  25.312  0.00  0.00     0.241 C 
ATOM      3  O   ILE d   5       3.290   5.570  24.387  0.00  0.00    -0.271 OA
ATOM      4  N   HIS d   6       3.951   4.495  26.287  0.00  0.00    -0.346 N 
ATOM      5  H   HIS d   6       4.682   4.400  26.970  0.00  0.00     0.163 HD
BRANCH   4   6
ATOM      6  CA  HIS d   6       3.209   3.232  26.157  0.00  0.00     0.182 C 
BRANCH   6   7
ATOM      7  CB  HIS d   6       4.365   2.192  25.863  0.00  0.00     0.087 C 
BRANCH   7   8
ATOM      8  CG  HIS d   6       4.769   1.786  24.489  0.00  0.00     0.010 C 
ATOM      9  CD2 HIS d   6       4.120   1.098  23.478  0.00  0.00     0.136 C 
ATOM     10  NE2 HIS d   6       4.874   1.133  22.332  0.00  0.00    -0.260 NA
ATOM     11  CE1 HIS d   6       5.937   1.827  22.654  0.00  0.00     0.180 C 
ATOM     12  ND1 HIS d   6       6.078   1.796  24.020  0.00  0.00    -0.256 NA
ATOM     13  HD1 HIS d   6       6.710   1.098  24.375  0.00  0.00     0.134 HD
ENDBRANCH   7   8
ENDBRANCH   6   7
BRANCH   6  14
ATOM     14  C   HIS d   6       2.488   3.053  27.580  0.00  0.00     0.243 C 
ATOM     15  O   HIS d   6       2.669   3.918  28.449  0.00  0.00    -0.271 OA
ATOM     16  N   PRO d   7       1.633   1.957  27.873  0.00  0.00    -0.337 N 
ATOM     17  CD  PRO d   7       0.757   1.329  26.883  0.00  0.00     0.127 C 
ATOM     18  CA  PRO d   7       0.907   1.941  29.199  0.00  0.00     0.179 C 
ATOM     19  CG  PRO d   7      -0.660   1.658  27.364  0.00  0.00     0.022 C 
ATOM     20  CB  PRO d   7      -0.499   2.339  28.725  0.00  0.00     0.037 C 
BRANCH  18  21
ATOM     21  C   PRO d   7       0.786   0.534  29.934  0.00  0.00     0.241 C 
ATOM     22  O   PRO d   7      -0.033  -0.305  29.538  0.00  0.00    -0.271 OA
ATOM     23  N   PHE d   8       1.562   0.102  30.996  0.00  0.00    -0.346 N 
ATOM     24  H   PHE d   8       1.183  -0.805  31.247  0.00  0.00     0.163 HD
BRANCH  23  25
ATOM     25  CA  PHE d   8       2.277   0.782  32.128  0.00  0.00     0.180 C 
BRANCH  25  26
ATOM     26  CB  PHE d   8       2.742  -0.249  33.250  0.00  0.00     0.073 C 
BRANCH  26  27
ATOM     27  CG  PHE d   8       2.488  -0.038  34.756  0.00  0.00    -0.056 C 
ATOM     28  CD1 PHE d   8       3.550   0.147  35.643  0.00  0.00     0.007 C 
ATOM     29  CE1 PHE d   8       3.328   0.420  37.011  0.00  0.00     0.001 C 
ATOM     30  CZ  PHE d   8       2.038   0.441  37.546  0.00  0.00     0.000 C 
ATOM     31  CE2 PHE d   8       0.968   0.295  36.692  0.00  0.00     0.001 C 
ATOM     32  CD2 PHE d   8       1.210   0.152  35.327  0.00  0.00     0.007 C 
ENDBRANCH  26  27
ENDBRANCH  25  26
BRANCH  25  33
ATOM     33  C   PHE d   8       3.399   1.684  31.610  0.00  0.00     0.241 C 
ATOM     34  O   PHE d   8       3.331   2.891  31.780  0.00  0.00    -0.271 OA
ATOM     35  N   HIS d   9       4.460   1.227  30.898  0.00  0.00    -0.346 N 
ATOM     36  H   HIS d   9       5.059   2.026  30.756  0.00  0.00     0.163 HD
BRANCH  35  37
ATOM     37  CA  HIS d   9       5.057  -0.103  30.669  0.00  0.00     0.182 C 
BRANCH  37  38
ATOM     38  CB  HIS d   9       5.074  -0.811  29.289  0.00  0.00     0.093 C 
BRANCH  38  39
ATOM     39  CG  HIS d   9       3.926  -1.679  29.001  0.00  0.00     0.030 C 
ATOM     40  CD2 HIS d   9       3.305  -2.606  29.784  0.00  0.00     0.143 C 
ATOM     41  NE2 HIS d   9       2.156  -3.055  29.200  0.00  0.00    -0.254 NA
ATOM     42  CE1 HIS d   9       2.127  -2.477  28.024  0.00  0.00     0.207 C 
ATOM     43  ND1 HIS d   9       3.271  -1.765  27.798  0.00  0.00    -0.353 N 
ATOM     44  HD1 HIS d   9       3.552  -1.367  26.913  0.00  0.00     0.166 HD
ENDBRANCH  38  39
ENDBRANCH  37  38
BRANCH  37  45
ATOM     45  C   HIS d   9       6.254  -0.558  31.579  0.00  0.00     0.241 C 
ATOM     46  O   HIS d   9       6.407  -1.754  31.849  0.00  0.00    -0.271 OA
ATOM     47  N   LEU d  10       7.130   0.291  32.201  0.00  0.00    -0.345 N 
ATOM     48  H   LEU d  10       7.734  -0.290  32.777  0.00  0.00     0.163 HD
BRANCH  47  49
ATOM     49  CA  LEU d  10       7.918   1.411  31.642  0.00  0.00     0.182 C 
BRANCH  49  50
ATOM     50  CB  LEU d  10       7.932   1.421  30.120  0.00  0.00     0.040 C 
BRANCH  50  51
ATOM     51  CG  LEU d  10       8.513   2.670  29.506  0.00  0.00    -0.020 C 
ATOM     52  CD1 LEU d  10      10.008   2.464  29.363  0.00  0.00     0.009 C 
ATOM     53  CD2 LEU d  10       7.745   3.015  28.242  0.00  0.00     0.009 C 
ENDBRANCH  50  51
ENDBRANCH  49  50
BRANCH  49  54
ATOM     54  C   LEU d  10       7.517   2.734  32.341  0.00  0.00     0.163 C 
ATOM     55  OXT LEU d  10       8.184   3.317  33.194  0.00  0.00    -0.648 OA
BRANCH  54  56
ATOM     56  O   LEU d  10       6.329   3.208  31.913  0.00  0.00    -0.775 OA
ATOM     57  H   LEU d  10       5.630   3.022  32.570  0.00  0.00     0.167 HD
ENDBRANCH  54  56
ENDBRANCH  49  54
ENDBRANCH  47  49
ENDBRANCH  37  45
ENDBRANCH  35  37
ENDBRANCH  25  33
ENDBRANCH  23  25
ENDBRANCH  18  21
ENDBRANCH   6  14
ENDBRANCH   4   6
ENDBRANCH   1   2
BRANCH   1  58
ATOM     58  N   ILE d   5       4.648   7.642  26.208  0.00  0.00    -0.346 N 
ATOM     59  C   TYR d   4       4.251   8.804  25.571  0.00  0.00     0.241 C 
ATOM     60  O   TYR d   4       4.499   8.995  24.383  0.00  0.00    -0.271 OA
ATOM     61  H   ILE d   5       4.109   7.397  27.033  0.00  0.00     0.163 HD
BRANCH  59  62
ATOM     62  CA  TYR d   4       3.481   9.866  26.440  0.00  0.00     0.180 C 
BRANCH  62  63
ATOM     63  N   TYR d   4       3.933   9.821  27.875  0.00  0.00    -0.346 N 
ATOM     64  C   VAL d   3       3.077   9.343  28.866  0.00  0.00     0.241 C 
ATOM     65  O   VAL d   3       1.975   8.926  28.522  0.00  0.00    -0.271 OA
ATOM     66  H   TYR d   4       4.528  10.584  28.170  0.00  0.00     0.163 HD
BRANCH  64  67
ATOM     67  CA  VAL d   3       3.542   9.407  30.393  0.00  0.00     0.180 C 
BRANCH  67  68
ATOM     68  N   VAL d   3       4.784  10.155  30.840  0.00  0.00    -0.346 N 
ATOM     69  C   ARG d   2       6.107   9.955  31.090  0.00  0.00     0.241 C 
ATOM     70  O   ARG d   2       6.645  10.867  31.736  0.00  0.00    -0.271 OA
ATOM     71  H   VAL d   3       4.558  10.975  31.404  0.00  0.00     0.163 HD
BRANCH  69  72
ATOM     72  CA  ARG d   2       6.923   8.836  30.434  0.00  0.00     0.176 C 
BRANCH  72  73
ATOM     73  N   ARG d   2       8.139   9.397  29.831  0.00  0.00    -0.346 N 
ATOM     74  C   ASP d   1       8.134  10.138  28.675  0.00  0.00     0.252 C 
ATOM     75  O   ASP d   1       7.173  10.205  27.904  0.00  0.00    -0.271 OA
ATOM     76  H   ARG d   2       8.849   9.656  30.511  0.00  0.00     0.163 HD
BRANCH  74  77
ATOM     77  CA  ASP d   1       9.469  10.860  28.346  0.00  0.00     0.318 C 
BRANCH  77  78
ATOM     78  N   ASP d   1      10.317  10.821  29.571  0.00  0.00     0.092 N 
ATOM     79  H1  ASP d   1      11.205  10.366  29.367  0.00  0.00     0.313 HD
ATOM     80  H2  ASP d   1       9.855  10.183  30.235  0.00  0.00     0.313 HD
ENDBRANCH  77  78
BRANCH  77  81
ATOM     81  CB  ASP d   1      10.180  10.159  27.184  0.00  0.00     0.155 C 
BRANCH  81  82
ATOM     82  CG  ASP d   1      10.532  11.123  26.087  0.00  0.00     0.141 C 
ATOM     83  OD2 ASP d   1      10.904  12.276  26.221  0.00  0.00    -0.650 OA
BRANCH  82  84
ATOM     84  OD1 ASP d   1      10.477  10.552  24.869  0.00  0.00    -0.776 OA
ATOM     85  HD1 ASP d   1      10.389  11.298  24.243  0.00  0.00     0.167 HD
ENDBRANCH  82  84
ENDBRANCH  81  82
ENDBRANCH  77  81
ENDBRANCH  74  77
ENDBRANCH  72  73
BRANCH  72  86
ATOM     86  CB  ARG d   2       6.964   7.536  31.261  0.00  0.00     0.037 C 
BRANCH  86  87
ATOM     87  CG  ARG d   2       7.540   6.227  30.696  0.00  0.00     0.024 C 
BRANCH  87  88
ATOM     88  CD  ARG d   2       9.002   5.938  31.017  0.00  0.00     0.152 C 
BRANCH  88  89
ATOM     89  NE  ARG d   2       9.335   6.467  32.328  0.00  0.00    -0.268 NA
ATOM     90  CZ  ARG d   2      10.519   6.617  32.739  0.00  0.00     0.143 C 
ATOM     91  NH1 ARG d   2      10.707   7.086  33.983  0.00  0.00    -0.278 NA
ATOM     92  NH2 ARG d   2      11.698   6.340  32.129  0.00  0.00    -0.278 NA
ATOM     93 1HH1 ARG d   2       9.826   7.483  34.343  0.00  0.00     0.126 HD
ATOM     94 2HH1 ARG d   2      11.513   7.659  34.156  0.00  0.00     0.126 HD
ATOM     95 1HH2 ARG d   2      11.645   6.200  31.125  0.00  0.00     0.126 HD
ATOM     96 2HH2 ARG d   2      12.481   6.943  32.385  0.00  0.00     0.126 HD
ENDBRANCH  88  89
ENDBRANCH  87  88
ENDBRANCH  86  87
ENDBRANCH  72  86
ENDBRANCH  69  72
ENDBRANCH  67  68
BRANCH  67  97
ATOM     97  CB  VAL d   3       2.422  10.052  31.287  0.00  0.00     0.009 C 
ATOM     98  CG1 VAL d   3       2.061   9.132  32.463  0.00  0.00     0.012 C 
ATOM     99  CG2 VAL d   3       2.666  11.483  31.758  0.00  0.00     0.012 C 
ENDBRANCH  67  97
ENDBRANCH  64  67
ENDBRANCH  62  63
BRANCH  62 100
ATOM    100  CB  TYR d   4       3.585  11.315  25.859  0.00  0.00     0.073 C 
BRANCH 100 101
ATOM    101  CG  TYR d   4       4.900  12.071  26.015  0.00  0.00    -0.056 A 
ATOM    102  CD1 TYR d   4       5.127  12.934  27.103  0.00  0.00     0.010 A 
ATOM    103  CE1 TYR d   4       6.360  13.580  27.273  0.00  0.00     0.037 A 
ATOM    104  CZ  TYR d   4       7.378  13.391  26.355  0.00  0.00     0.065 A 
ATOM    105  CE2 TYR d   4       7.198  12.531  25.285  0.00  0.00     0.037 A 
ATOM    106  CD2 TYR d   4       5.974  11.865  25.145  0.00  0.00     0.010 A 
BRANCH 104 107
ATOM    107  OH  TYR d   4       8.561  14.035  26.528  0.00  0.00    -0.361 OA
ATOM    108  HH  TYR d   4       8.665  14.161  27.489  0.00  0.00     0.217 HD
ENDBRANCH 104 107
ENDBRANCH 100 101
ENDBRANCH  62 100
ENDBRANCH  59  62
ENDBRANCH   1  58
BRANCH   1 109
ATOM    109  CB  ILE d   5       6.595   5.875  26.086  0.00  0.00     0.013 C 
ATOM    110  CG2 ILE d   5       7.562   5.344  25.019  0.00  0.00     0.012 C 
BRANCH 109 111
ATOM    111  CG1 ILE d   5       7.270   6.867  27.075  0.00  0.00     0.002 C 
ATOM    112  CD1 ILE d   5       8.781   6.749  27.221  0.00  0.00     0.005 C 
ENDBRANCH 109 111
ENDBRANCH   1 109
TORSDOF 41
ENDMDL
MODEL 6
REMARK VINA RESULT:      -8.3      2.866      9.594
REMARK WARNING: 32 MAX_TORS EXCEEDED!!!
REMARK  41 active torsions:
REMARK  status: ('A' for Active; 'I' for Inactive)
REMARK    1  A    between atoms: CB_3  and  CG1_2 
REMARK    2  A    between atoms: CA_4  and  CB_3 
REMARK    3  A    between atoms: CA_4  and  C_6 
REMARK    4  A    between atoms: CA_4  and  N_7 
REMARK       I    between atoms: C_6  and  N_8 
REMARK       I    between atoms: N_7  and  C_10 
REMARK    5  A    between atoms: N_8  and  CA_11 
REMARK    6  A    between atoms: CA_12  and  C_10 
REMARK    7  A    between atoms: CA_11  and  CB_15 
REMARK    8  A    between atoms: CA_11  and  C_14 
REMARK    9  A    between atoms: CA_12  and  N_17 
REMARK   10  A    between atoms: CA_12  and  CB_16 
REMARK       I    between atoms: C_14  and  N_18 
REMARK   11  A    between atoms: CB_15  and  CG_20 
REMARK   12  A    between atoms: CB_16  and  CG_21 
REMARK       I    between atoms: N_17  and  C_22 
REMARK   13  A    between atoms: C_22  and  CA_29 
REMARK   14  A    between atoms: CA_24  and  C_33 
REMARK   15  A    between atoms: CA_29  and  N_39 
REMARK   16  A    between atoms: CA_29  and  CB_38 
REMARK       I    between atoms: C_33  and  N_40 
REMARK       I    between atoms: N_39  and  C_45 
REMARK   17  A    between atoms: N_40  and  CA_46 
REMARK   18  A    between atoms: CZ_42  and  OH_47 
REMARK   19  A    between atoms: CA_48  and  C_45 
REMARK   20  A    between atoms: CA_46  and  CB_51 
REMARK   21  A    between atoms: CA_46  and  C_50 
REMARK   22  A    between atoms: CA_48  and  N_52 
REMARK   23  A    between atoms: CA_48  and  CB_53 
REMARK       I    between atoms: C_50  and  N_54 
REMARK   24  A    between atoms: CB_51  and  CG_56 
REMARK       I    between atoms: N_52  and  C_57 
REMARK   25  A    between atoms: CB_53  and  CG_58 
REMARK   26  A    between atoms: N_54  and  CA_59 
REMARK   27  A    between atoms: C_57  and  CA_62 
REMARK   28  A    between atoms: CG_58  and  CD_64 
REMARK   29  A    between atoms: CA_59  and  CB_66 
REMARK   30  A    between atoms: CA_59  and  C_65 
REMARK   31  A    between atoms: CA_62  and  N_70 
REMARK   32  A    between atoms: CA_62  and  CB_69 
REMARK   33  A    between atoms: CD_64  and  NE_71 
REMARK       I    between atoms: C_65  and  N_72 
REMARK   34  A    between atoms: CB_66  and  CG_74 
REMARK   35  A    between atoms: CB_69  and  CG_76 
REMARK   36  A    between atoms: N_72  and  CA_78 
REMARK   37  A    between atoms: CG_76  and  OD1_82 
REMARK       I    between atoms: CZ_77  and  NH1_83 
REMARK       I    between atoms: CZ_77  and  NH2_84 
REMARK   38  A    between atoms: CA_78  and  CB_86 
REMARK   39  A    between atoms: CA_78  and  C_85 
REMARK   40  A    between atoms: C_85  and  O_90 
REMARK   41  A    between atoms: CB_86  and  CG_91 
ROOT
ATOM      1  CA  ILE d   5      -1.542   5.659  29.134  0.00  0.00     0.180 C 
ENDROOT
BRANCH   1   2
ATOM      2  C   ILE d   5      -0.268   5.129  29.875  0.00  0.00     0.241 C 
ATOM      3  O   ILE d   5      -0.316   4.776  31.052  0.00  0.00    -0.271 OA
ATOM      4  N   HIS d   6       0.913   5.204  29.178  0.00  0.00    -0.346 N 
ATOM      5  H   HIS d   6       0.875   5.423  28.199  0.00  0.00     0.163 HD
BRANCH   4   6
ATOM      6  CA  HIS d   6       2.145   4.460  29.485  0.00  0.00     0.182 C 
BRANCH   6   7
ATOM      7  CB  HIS d   6       2.490   3.793  28.093  0.00  0.00     0.087 C 
BRANCH   7   8
ATOM      8  CG  HIS d   6       1.810   2.573  27.580  0.00  0.00     0.010 C 
ATOM      9  CD2 HIS d   6       0.541   2.339  27.077  0.00  0.00     0.136 C 
ATOM     10  NE2 HIS d   6       0.465   1.064  26.576  0.00  0.00    -0.260 NA
ATOM     11  CE1 HIS d   6       1.658   0.559  26.772  0.00  0.00     0.180 C 
ATOM     12  ND1 HIS d   6       2.276   1.276  27.767  0.00  0.00    -0.256 NA
ATOM     13  HD1 HIS d   6       2.209   0.883  28.691  0.00  0.00     0.134 HD
ENDBRANCH   7   8
ENDBRANCH   6   7
BRANCH   6  14
ATOM     14  C   HIS d   6       3.176   5.594  29.964  0.00  0.00     0.243 C 
ATOM     15  O   HIS d   6       3.576   6.421  29.133  0.00  0.00    -0.271 OA
ATOM     16  N   PRO d   7       3.628   5.700  31.306  0.00  0.00    -0.337 N 
ATOM     17  CD  PRO d   7       2.794   5.381  32.467  0.00  0.00     0.127 C 
ATOM     18  CA  PRO d   7       4.505   6.872  31.683  0.00  0.00     0.179 C 
ATOM     19  CG  PRO d   7       2.587   6.726  33.169  0.00  0.00     0.022 C 
ATOM     20  CB  PRO d   7       3.473   7.732  32.430  0.00  0.00     0.037 C 
BRANCH  18  21
ATOM     21  C   PRO d   7       5.703   6.577  32.690  0.00  0.00     0.241 C 
ATOM     22  O   PRO d   7       6.060   7.441  33.501  0.00  0.00    -0.271 OA
ATOM     23  N   PHE d   8       6.401   5.386  32.796  0.00  0.00    -0.346 N 
ATOM     24  H   PHE d   8       7.122   5.565  33.486  0.00  0.00     0.163 HD
BRANCH  23  25
ATOM     25  CA  PHE d   8       6.750   4.278  31.845  0.00  0.00     0.180 C 
BRANCH  25  26
ATOM     26  CB  PHE d   8       7.564   4.805  30.581  0.00  0.00     0.073 C 
BRANCH  26  27
ATOM     27  CG  PHE d   8       9.040   5.250  30.646  0.00  0.00    -0.056 C 
ATOM     28  CD1 PHE d   8       9.484   6.116  31.647  0.00  0.00     0.007 C 
ATOM     29  CE1 PHE d   8      10.847   6.468  31.764  0.00  0.00     0.001 C 
ATOM     30  CZ  PHE d   8      11.793   6.024  30.837  0.00  0.00     0.000 C 
ATOM     31  CE2 PHE d   8      11.393   5.143  29.857  0.00  0.00     0.001 C 
ATOM     32  CD2 PHE d   8      10.067   4.712  29.839  0.00  0.00     0.007 C 
ENDBRANCH  26  27
ENDBRANCH  25  26
BRANCH  25  33
ATOM     33  C   PHE d   8       7.422   3.114  32.575  0.00  0.00     0.241 C 
ATOM     34  O   PHE d   8       8.281   3.340  33.412  0.00  0.00    -0.271 OA
ATOM     35  N   HIS d   9       7.168   1.809  32.300  0.00  0.00    -0.346 N 
ATOM     36  H   HIS d   9       7.698   1.279  32.974  0.00  0.00     0.163 HD
BRANCH  35  37
ATOM     37  CA  HIS d   9       6.097   1.093  31.580  0.00  0.00     0.182 C 
BRANCH  37  38
ATOM     38  CB  HIS d   9       6.284  -0.302  30.928  0.00  0.00     0.093 C 
BRANCH  38  39
ATOM     39  CG  HIS d   9       6.004  -0.378  29.489  0.00  0.00     0.030 C 
ATOM     40  CD2 HIS d   9       4.905  -0.843  28.830  0.00  0.00     0.143 C 
ATOM     41  NE2 HIS d   9       4.973  -0.557  27.497  0.00  0.00    -0.254 NA
ATOM     42  CE1 HIS d   9       6.151  -0.008  27.328  0.00  0.00     0.207 C 
ATOM     43  ND1 HIS d   9       6.875  -0.036  28.486  0.00  0.00    -0.353 N 
ATOM     44  HD1 HIS d   9       7.859   0.179  28.571  0.00  0.00     0.166 HD
ENDBRANCH  38  39
ENDBRANCH  37  38
BRANCH  37  45
ATOM     45  C   HIS d   9       4.606   1.353  31.998  0.00  0.00     0.241 C 
ATOM     46  O   HIS d   9       3.931   2.196  31.397  0.00  0.00    -0.271 OA
ATOM     47  N   LEU d  10       3.982   0.772  33.070  0.00  0.00    -0.345 N 
ATOM     48  H   LEU d  10       3.058   1.196  33.130  0.00  0.00     0.163 HD
BRANCH  47  49
ATOM     49  CA  LEU d  10       3.891  -0.655  33.452  0.00  0.00     0.182 C 
BRANCH  49  50
ATOM     50  CB  LEU d  10       3.551  -0.852  34.921  0.00  0.00     0.040 C 
BRANCH  50  51
ATOM     51  CG  LEU d  10       2.869   0.326  35.571  0.00  0.00    -0.020 C 
ATOM     52  CD1 LEU d  10       1.383   0.032  35.620  0.00  0.00     0.009 C 
ATOM     53  CD2 LEU d  10       3.550   0.638  36.893  0.00  0.00     0.009 C 
ENDBRANCH  50  51
ENDBRANCH  49  50
BRANCH  49  54
ATOM     54  C   LEU d  10       3.012  -1.415  32.427  0.00  0.00     0.163 C 
ATOM     55  OXT LEU d  10       1.810  -1.229  32.248  0.00  0.00    -0.648 OA
BRANCH  54  56
ATOM     56  O   LEU d  10       3.709  -2.328  31.721  0.00  0.00    -0.775 OA
ATOM     57  H   LEU d  10       4.309  -2.829  32.308  0.00  0.00     0.167 HD
ENDBRANCH  54  56
ENDBRANCH  49  54
ENDBRANCH  47  49
ENDBRANCH  37  45
ENDBRANCH  35  37
ENDBRANCH  25  33
ENDBRANCH  23  25
ENDBRANCH  18  21
ENDBRANCH   6  14
ENDBRANCH   4   6
ENDBRANCH   1   2
BRANCH   1  58
ATOM     58  N   ILE d   5      -1.561   7.121  29.356  0.00  0.00    -0.346 N 
ATOM     59  C   TYR d   4      -2.205   7.737  30.414  0.00  0.00     0.241 C 
ATOM     60  O   TYR d   4      -2.923   7.099  31.180  0.00  0.00    -0.271 OA
ATOM     61  H   ILE d   5      -0.734   7.602  29.016  0.00  0.00     0.163 HD
BRANCH  59  62
ATOM     62  CA  TYR d   4      -1.985   9.287  30.579  0.00  0.00     0.180 C 
BRANCH  62  63
ATOM     63  N   TYR d   4      -0.686   9.718  29.951  0.00  0.00    -0.346 N 
ATOM     64  C   VAL d   3       0.073  10.730  30.536  0.00  0.00     0.241 C 
ATOM     65  O   VAL d   3      -0.328  11.216  31.588  0.00  0.00    -0.271 OA
ATOM     66  H   TYR d   4      -0.667   9.712  28.940  0.00  0.00     0.163 HD
BRANCH  64  67
ATOM     67  CA  VAL d   3       1.391  11.241  29.791  0.00  0.00     0.180 C 
BRANCH  67  68
ATOM     68  N   VAL d   3       1.498  12.623  29.173  0.00  0.00    -0.346 N 
ATOM     69  C   ARG d   2       2.280  13.343  28.323  0.00  0.00     0.241 C 
ATOM     70  O   ARG d   2       2.092  14.568  28.375  0.00  0.00    -0.271 OA
ATOM     71  H   VAL d   3       1.052  13.338  29.749  0.00  0.00     0.163 HD
BRANCH  69  72
ATOM     72  CA  ARG d   2       3.137  12.701  27.227  0.00  0.00     0.176 C 
BRANCH  72  73
ATOM     73  N   ARG d   2       4.559  12.945  27.503  0.00  0.00    -0.346 N 
ATOM     74  C   ASP d   1       5.428  13.465  26.576  0.00  0.00     0.252 C 
ATOM     75  O   ASP d   1       5.178  13.552  25.370  0.00  0.00    -0.271 OA
ATOM     76  H   ARG d   2       4.749  13.200  28.468  0.00  0.00     0.163 HD
BRANCH  74  77
ATOM     77  CA  ASP d   1       6.812  13.894  27.133  0.00  0.00     0.318 C 
BRANCH  77  78
ATOM     78  N   ASP d   1       7.238  12.865  28.124  0.00  0.00     0.092 N 
ATOM     79  H1  ASP d   1       6.557  12.108  28.157  0.00  0.00     0.313 HD
ATOM     80  H2  ASP d   1       7.173  13.302  29.055  0.00  0.00     0.313 HD
ENDBRANCH  77  78
BRANCH  77  81
ATOM     81  CB  ASP d   1       7.835  13.994  25.996  0.00  0.00     0.155 C 
BRANCH  81  82
ATOM     82  CG  ASP d   1       8.774  12.822  25.990  0.00  0.00     0.141 C 
ATOM     83  OD2 ASP d   1       8.543  11.704  25.562  0.00  0.00    -0.650 OA
BRANCH  82  84
ATOM     84  OD1 ASP d   1       9.996  13.145  26.454  0.00  0.00    -0.776 OA
ATOM     85  HD1 ASP d   1      10.251  12.402  27.037  0.00  0.00     0.167 HD
ENDBRANCH  82  84
ENDBRANCH  81  82
ENDBRANCH  77  81
ENDBRANCH  74  77
ENDBRANCH  72  73
BRANCH  72  86
ATOM     86  CB  ARG d   2       2.633  11.314  26.783  0.00  0.00     0.037 C 
BRANCH  86  87
ATOM     87  CG  ARG d   2       1.779  11.122  25.519  0.00  0.00     0.024 C 
BRANCH  87  88
ATOM     88  CD  ARG d   2       0.687  10.061  25.595  0.00  0.00     0.152 C 
BRANCH  88  89
ATOM     89  NE  ARG d   2       0.652   9.482  26.927  0.00  0.00    -0.268 NA
ATOM     90  CZ  ARG d   2       1.333   8.476  27.268  0.00  0.00     0.143 C 
ATOM     91  NH1 ARG d   2       1.196   8.007  28.519  0.00  0.00    -0.278 NA
ATOM     92  NH2 ARG d   2       2.197   7.720  26.546  0.00  0.00    -0.278 NA
ATOM     93 1HH1 ARG d   2       0.710   8.705  29.101  0.00  0.00     0.126 HD
ATOM     94 2HH1 ARG d   2       1.998   7.595  28.960  0.00  0.00     0.126 HD
ATOM     95 1HH2 ARG d   2       2.519   8.137  25.678  0.00  0.00     0.126 HD
ATOM     96 2HH2 ARG d   2       2.966   7.303  27.072  0.00  0.00     0.126 HD
ENDBRANCH  88  89
ENDBRANCH  87  88
ENDBRANCH  86  87
ENDBRANCH  72  86
ENDBRANCH  69  72
ENDBRANCH  67  68
BRANCH  67  97
ATOM     97  CB  VAL d   3       2.624  11.215  30.766  0.00  0.00     0.009 C 
ATOM     98  CG1 VAL d   3       3.838  10.552  30.098  0.00  0.00     0.012 C 
ATOM     99  CG2 VAL d   3       3.006  12.540  31.418  0.00  0.00     0.012 C 
ENDBRANCH  67  97
ENDBRANCH  64  67
ENDBRANCH  62  63
BRANCH  62 100
ATOM    100  CB  TYR d   4      -3.185  10.130  30.035  0.00  0.00     0.073 C 
BRANCH 100 101
ATOM    101  CG  TYR d   4      -3.355  10.268  28.525  0.00  0.00    -0.056 A 
ATOM    102  CD1 TYR d   4      -2.926  11.418  27.839  0.00  0.00     0.010 A 
ATOM    103  CE1 TYR d   4      -3.031  11.513  26.443  0.00  0.00     0.037 A 
ATOM    104  CZ  TYR d   4      -3.581  10.473  25.714  0.00  0.00     0.065 A 
ATOM    105  CE2 TYR d   4      -3.993   9.317  26.354  0.00  0.00     0.037 A 
ATOM    106  CD2 TYR d   4      -3.851   9.221  27.744  0.00  0.00     0.010 A 
BRANCH 104 107
ATOM    107  OH  TYR d   4      -3.688  10.588  24.365  0.00  0.00    -0.361 OA
ATOM    108  HH  TYR d   4      -3.175   9.851  23.987  0.00  0.00     0.217 HD
ENDBRANCH 104 107
ENDBRANCH 100 101
ENDBRANCH  62 100
ENDBRANCH  59  62
ENDBRANCH   1  58
BRANCH   1 109
ATOM    109  CB  ILE d   5      -1.740   5.111  27.667  0.00  0.00     0.013 C 
ATOM    110  CG2 ILE d   5      -3.134   4.537  27.378  0.00  0.00     0.012 C 
BRANCH 109 111
ATOM    111  CG1 ILE d   5      -1.295   6.172  26.621  0.00  0.00     0.002 C 
ATOM    112  CD1 ILE d   5      -0.548   5.646  25.402  0.00  0.00     0.005 C 
ENDBRANCH 109 111
ENDBRANCH   1 109
TORSDOF 41
ENDMDL
MODEL 7
REMARK VINA RESULT:      -8.3      2.842      9.871
REMARK WARNING: 32 MAX_TORS EXCEEDED!!!
REMARK  41 active torsions:
REMARK  status: ('A' for Active; 'I' for Inactive)
REMARK    1  A    between atoms: CB_3  and  CG1_2 
REMARK    2  A    between atoms: CA_4  and  CB_3 
REMARK    3  A    between atoms: CA_4  and  C_6 
REMARK    4  A    between atoms: CA_4  and  N_7 
REMARK       I    between atoms: C_6  and  N_8 
REMARK       I    between atoms: N_7  and  C_10 
REMARK    5  A    between atoms: N_8  and  CA_11 
REMARK    6  A    between atoms: CA_12  and  C_10 
REMARK    7  A    between atoms: CA_11  and  CB_15 
REMARK    8  A    between atoms: CA_11  and  C_14 
REMARK    9  A    between atoms: CA_12  and  N_17 
REMARK   10  A    between atoms: CA_12  and  CB_16 
REMARK       I    between atoms: C_14  and  N_18 
REMARK   11  A    between atoms: CB_15  and  CG_20 
REMARK   12  A    between atoms: CB_16  and  CG_21 
REMARK       I    between atoms: N_17  and  C_22 
REMARK   13  A    between atoms: C_22  and  CA_29 
REMARK   14  A    between atoms: CA_24  and  C_33 
REMARK   15  A    between atoms: CA_29  and  N_39 
REMARK   16  A    between atoms: CA_29  and  CB_38 
REMARK       I    between atoms: C_33  and  N_40 
REMARK       I    between atoms: N_39  and  C_45 
REMARK   17  A    between atoms: N_40  and  CA_46 
REMARK   18  A    between atoms: CZ_42  and  OH_47 
REMARK   19  A    between atoms: CA_48  and  C_45 
REMARK   20  A    between atoms: CA_46  and  CB_51 
REMARK   21  A    between atoms: CA_46  and  C_50 
REMARK   22  A    between atoms: CA_48  and  N_52 
REMARK   23  A    between atoms: CA_48  and  CB_53 
REMARK       I    between atoms: C_50  and  N_54 
REMARK   24  A    between atoms: CB_51  and  CG_56 
REMARK       I    between atoms: N_52  and  C_57 
REMARK   25  A    between atoms: CB_53  and  CG_58 
REMARK   26  A    between atoms: N_54  and  CA_59 
REMARK   27  A    between atoms: C_57  and  CA_62 
REMARK   28  A    between atoms: CG_58  and  CD_64 
REMARK   29  A    between atoms: CA_59  and  CB_66 
REMARK   30  A    between atoms: CA_59  and  C_65 
REMARK   31  A    between atoms: CA_62  and  N_70 
REMARK   32  A    between atoms: CA_62  and  CB_69 
REMARK   33  A    between atoms: CD_64  and  NE_71 
REMARK       I    between atoms: C_65  and  N_72 
REMARK   34  A    between atoms: CB_66  and  CG_74 
REMARK   35  A    between atoms: CB_69  and  CG_76 
REMARK   36  A    between atoms: N_72  and  CA_78 
REMARK   37  A    between atoms: CG_76  and  OD1_82 
REMARK       I    between atoms: CZ_77  and  NH1_83 
REMARK       I    between atoms: CZ_77  and  NH2_84 
REMARK   38  A    between atoms: CA_78  and  CB_86 
REMARK   39  A    between atoms: CA_78  and  C_85 
REMARK   40  A    between atoms: C_85  and  O_90 
REMARK   41  A    between atoms: CB_86  and  CG_91 
ROOT
ATOM      1  CA  ILE d   5       1.016   3.394  25.494  0.00  0.00     0.180 C 
ENDROOT
BRANCH   1   2
ATOM      2  C   ILE d   5       1.511   2.020  26.062  0.00  0.00     0.241 C 
ATOM      3  O   ILE d   5       0.875   0.986  25.871  0.00  0.00    -0.271 OA
ATOM      4  N   HIS d   6       2.612   2.065  26.881  0.00  0.00    -0.346 N 
ATOM      5  H   HIS d   6       3.133   2.922  26.933  0.00  0.00     0.163 HD
BRANCH   4   6
ATOM      6  CA  HIS d   6       3.473   0.925  27.233  0.00  0.00     0.182 C 
BRANCH   6   7
ATOM      7  CB  HIS d   6       4.909   1.450  26.826  0.00  0.00     0.087 C 
BRANCH   7   8
ATOM      8  CG  HIS d   6       5.339   1.645  25.416  0.00  0.00     0.010 C 
ATOM      9  CD2 HIS d   6       6.202   2.541  24.806  0.00  0.00     0.136 C 
ATOM     10  NE2 HIS d   6       6.387   2.190  23.493  0.00  0.00    -0.260 NA
ATOM     11  CE1 HIS d   6       5.659   1.114  23.331  0.00  0.00     0.180 C 
ATOM     12  ND1 HIS d   6       4.702   1.084  24.315  0.00  0.00    -0.256 NA
ATOM     13  HD1 HIS d   6       3.801   1.453  24.055  0.00  0.00     0.134 HD
ENDBRANCH   7   8
ENDBRANCH   6   7
BRANCH   6  14
ATOM     14  C   HIS d   6       3.245   0.735  28.810  0.00  0.00     0.243 C 
ATOM     15  O   HIS d   6       2.224   1.213  29.324  0.00  0.00    -0.271 OA
ATOM     16  N   PRO d   7       4.156   0.022  29.636  0.00  0.00    -0.337 N 
ATOM     17  CD  PRO d   7       4.909  -1.149  29.182  0.00  0.00     0.127 C 
ATOM     18  CA  PRO d   7       3.793  -0.203  31.086  0.00  0.00     0.179 C 
ATOM     19  CG  PRO d   7       4.343  -2.309  30.005  0.00  0.00     0.022 C 
ATOM     20  CB  PRO d   7       3.383  -1.682  31.019  0.00  0.00     0.037 C 
BRANCH  18  21
ATOM     21  C   PRO d   7       4.973  -0.079  32.148  0.00  0.00     0.241 C 
ATOM     22  O   PRO d   7       5.463  -1.096  32.654  0.00  0.00    -0.271 OA
ATOM     23  N   PHE d   8       5.575   1.098  32.561  0.00  0.00    -0.346 N 
ATOM     24  H   PHE d   8       6.238   0.817  33.275  0.00  0.00     0.163 HD
BRANCH  23  25
ATOM     25  CA  PHE d   8       5.125   2.524  32.693  0.00  0.00     0.180 C 
BRANCH  25  26
ATOM     26  CB  PHE d   8       3.564   2.636  32.991  0.00  0.00     0.073 C 
BRANCH  26  27
ATOM     27  CG  PHE d   8       2.820   1.723  33.987  0.00  0.00    -0.056 C 
ATOM     28  CD1 PHE d   8       1.534   1.256  33.709  0.00  0.00     0.007 C 
ATOM     29  CE1 PHE d   8       0.874   0.357  34.575  0.00  0.00     0.001 C 
ATOM     30  CZ  PHE d   8       1.452  -0.042  35.783  0.00  0.00     0.000 C 
ATOM     31  CE2 PHE d   8       2.732   0.374  36.071  0.00  0.00     0.001 C 
ATOM     32  CD2 PHE d   8       3.410   1.160  35.141  0.00  0.00     0.007 C 
ENDBRANCH  26  27
ENDBRANCH  25  26
BRANCH  25  33
ATOM     33  C   PHE d   8       6.002   3.290  33.685  0.00  0.00     0.241 C 
ATOM     34  O   PHE d   8       5.540   3.634  34.761  0.00  0.00    -0.271 OA
ATOM     35  N   HIS d   9       7.273   3.682  33.415  0.00  0.00    -0.346 N 
ATOM     36  H   HIS d   9       7.618   4.099  34.266  0.00  0.00     0.163 HD
BRANCH  35  37
ATOM     37  CA  HIS d   9       8.278   3.307  32.402  0.00  0.00     0.182 C 
BRANCH  37  38
ATOM     38  CB  HIS d   9       8.644   1.840  32.055  0.00  0.00     0.093 C 
BRANCH  38  39
ATOM     39  CG  HIS d   9       8.689   1.513  30.625  0.00  0.00     0.030 C 
ATOM     40  CD2 HIS d   9       9.749   1.208  29.825  0.00  0.00     0.143 C 
ATOM     41  NE2 HIS d   9       9.334   0.781  28.597  0.00  0.00    -0.254 NA
ATOM     42  CE1 HIS d   9       8.031   0.916  28.615  0.00  0.00     0.207 C 
ATOM     43  ND1 HIS d   9       7.616   1.516  29.770  0.00  0.00    -0.353 N 
ATOM     44  HD1 HIS d   9       6.686   1.870  29.949  0.00  0.00     0.166 HD
ENDBRANCH  38  39
ENDBRANCH  37  38
BRANCH  37  45
ATOM     45  C   HIS d   9       8.523   4.277  31.190  0.00  0.00     0.241 C 
ATOM     46  O   HIS d   9       7.609   4.516  30.393  0.00  0.00    -0.271 OA
ATOM     47  N   LEU d  10       9.730   4.837  30.869  0.00  0.00    -0.345 N 
ATOM     48  H   LEU d  10       9.590   5.344  29.998  0.00  0.00     0.163 HD
BRANCH  47  49
ATOM     49  CA  LEU d  10      10.683   5.583  31.721  0.00  0.00     0.182 C 
BRANCH  49  50
ATOM     50  CB  LEU d  10      11.904   6.068  30.955  0.00  0.00     0.040 C 
BRANCH  50  51
ATOM     51  CG  LEU d  10      11.876   5.775  29.476  0.00  0.00    -0.020 C 
ATOM     52  CD1 LEU d  10      11.695   7.092  28.746  0.00  0.00     0.009 C 
ATOM     53  CD2 LEU d  10      13.090   4.944  29.102  0.00  0.00     0.009 C 
ENDBRANCH  50  51
ENDBRANCH  49  50
BRANCH  49  54
ATOM     54  C   LEU d  10       9.920   6.642  32.555  0.00  0.00     0.163 C 
ATOM     55  OXT LEU d  10      10.251   7.040  33.671  0.00  0.00    -0.648 OA
BRANCH  54  56
ATOM     56  O   LEU d  10       8.823   7.109  31.924  0.00  0.00    -0.775 OA
ATOM     57  H   LEU d  10       9.037   7.351  31.002  0.00  0.00     0.167 HD
ENDBRANCH  54  56
ENDBRANCH  49  54
ENDBRANCH  47  49
ENDBRANCH  37  45
ENDBRANCH  35  37
ENDBRANCH  25  33
ENDBRANCH  23  25
ENDBRANCH  18  21
ENDBRANCH   6  14
ENDBRANCH   4   6
ENDBRANCH   1   2
BRANCH   1  58
ATOM     58  N   ILE d   5       0.173   3.990  26.552  0.00  0.00    -0.346 N 
ATOM     59  C   TYR d   4      -0.915   4.809  26.309  0.00  0.00     0.241 C 
ATOM     60  O   TYR d   4      -1.174   5.202  25.174  0.00  0.00    -0.271 OA
ATOM     61  H   ILE d   5       0.108   3.428  27.396  0.00  0.00     0.163 HD
BRANCH  59  62
ATOM     62  CA  TYR d   4      -1.790   5.221  27.550  0.00  0.00     0.180 C 
BRANCH  62  63
ATOM     63  N   TYR d   4      -1.191   6.401  28.267  0.00  0.00    -0.346 N 
ATOM     64  C   VAL d   3      -1.128   6.418  29.659  0.00  0.00     0.241 C 
ATOM     65  O   VAL d   3      -1.532   5.431  30.266  0.00  0.00    -0.271 OA
ATOM     66  H   TYR d   4      -1.368   7.304  27.846  0.00  0.00     0.163 HD
BRANCH  64  67
ATOM     67  CA  VAL d   3      -0.586   7.728  30.397  0.00  0.00     0.180 C 
BRANCH  67  68
ATOM     68  N   VAL d   3      -1.431   8.527  31.371  0.00  0.00    -0.346 N 
ATOM     69  C   ARG d   2      -2.233   9.627  31.421  0.00  0.00     0.241 C 
ATOM     70  O   ARG d   2      -2.463  10.035  32.570  0.00  0.00    -0.271 OA
ATOM     71  H   VAL d   3      -1.110   8.424  32.335  0.00  0.00     0.163 HD
BRANCH  69  72
ATOM     72  CA  ARG d   2      -2.984  10.170  30.202  0.00  0.00     0.176 C 
BRANCH  72  73
ATOM     73  N   ARG d   2      -2.028  10.723  29.235  0.00  0.00    -0.346 N 
ATOM     74  C   ASP d   1      -2.214  11.921  28.591  0.00  0.00     0.252 C 
ATOM     75  O   ASP d   1      -3.287  12.530  28.566  0.00  0.00    -0.271 OA
ATOM     76  H   ARG d   2      -1.061  10.483  29.436  0.00  0.00     0.163 HD
BRANCH  74  77
ATOM     77  CA  ASP d   1      -0.979  12.456  27.817  0.00  0.00     0.318 C 
BRANCH  77  78
ATOM     78  N   ASP d   1      -0.721  13.848  28.285  0.00  0.00     0.092 N 
ATOM     79  H1  ASP d   1      -0.306  13.832  29.215  0.00  0.00     0.313 HD
ATOM     80  H2  ASP d   1      -1.640  14.291  28.427  0.00  0.00     0.313 HD
ENDBRANCH  77  78
BRANCH  77  81
ATOM     81  CB  ASP d   1       0.241  11.569  28.086  0.00  0.00     0.155 C 
BRANCH  81  82
ATOM     82  CG  ASP d   1       1.195  12.215  29.050  0.00  0.00     0.141 C 
ATOM     83  OD2 ASP d   1       2.214  12.823  28.772  0.00  0.00    -0.650 OA
BRANCH  82  84
ATOM     84  OD1 ASP d   1       0.767  12.130  30.324  0.00  0.00    -0.776 OA
ATOM     85  HD1 ASP d   1       0.636  11.175  30.486  0.00  0.00     0.167 HD
ENDBRANCH  82  84
ENDBRANCH  81  82
ENDBRANCH  77  81
ENDBRANCH  74  77
ENDBRANCH  72  73
BRANCH  72  86
ATOM     86  CB  ARG d   2      -4.156   9.276  29.749  0.00  0.00     0.037 C 
BRANCH  86  87
ATOM     87  CG  ARG d   2      -4.060   8.371  28.510  0.00  0.00     0.024 C 
BRANCH  87  88
ATOM     88  CD  ARG d   2      -4.941   8.753  27.326  0.00  0.00     0.152 C 
BRANCH  88  89
ATOM     89  NE  ARG d   2      -4.303   9.805  26.553  0.00  0.00    -0.268 NA
ATOM     90  CZ  ARG d   2      -3.431   9.588  25.667  0.00  0.00     0.143 C 
ATOM     91  NH1 ARG d   2      -2.886  10.642  25.038  0.00  0.00    -0.278 NA
ATOM     92  NH2 ARG d   2      -2.890   8.420  25.240  0.00  0.00    -0.278 NA
ATOM     93 1HH1 ARG d   2      -3.450  11.485  25.219  0.00  0.00     0.126 HD
ATOM     94 2HH1 ARG d   2      -2.615  10.530  24.078  0.00  0.00     0.126 HD
ATOM     95 1HH2 ARG d   2      -3.402   7.583  25.502  0.00  0.00     0.126 HD
ATOM     96 2HH2 ARG d   2      -2.604   8.397  24.261  0.00  0.00     0.126 HD
ENDBRANCH  88  89
ENDBRANCH  87  88
ENDBRANCH  86  87
ENDBRANCH  72  86
ENDBRANCH  69  72
ENDBRANCH  67  68
BRANCH  67  97
ATOM     97  CB  VAL d   3       0.688   7.394  31.254  0.00  0.00     0.009 C 
ATOM     98  CG1 VAL d   3       1.740   6.658  30.411  0.00  0.00     0.012 C 
ATOM     99  CG2 VAL d   3       1.311   8.552  32.029  0.00  0.00     0.012 C 
ENDBRANCH  67  97
ENDBRANCH  64  67
ENDBRANCH  62  63
BRANCH  62 100
ATOM    100  CB  TYR d   4      -3.286   5.485  27.175  0.00  0.00     0.073 C 
BRANCH 100 101
ATOM    101  CG  TYR d   4      -4.175   4.293  26.835  0.00  0.00    -0.056 A 
ATOM    102  CD1 TYR d   4      -3.769   2.974  27.104  0.00  0.00     0.010 A 
ATOM    103  CE1 TYR d   4      -4.617   1.886  26.844  0.00  0.00     0.037 A 
ATOM    104  CZ  TYR d   4      -5.871   2.095  26.298  0.00  0.00     0.065 A 
ATOM    105  CE2 TYR d   4      -6.312   3.383  26.042  0.00  0.00     0.037 A 
ATOM    106  CD2 TYR d   4      -5.470   4.462  26.338  0.00  0.00     0.010 A 
BRANCH 104 107
ATOM    107  OH  TYR d   4      -6.672   1.030  26.040  0.00  0.00    -0.361 OA
ATOM    108  HH  TYR d   4      -6.268   0.560  25.289  0.00  0.00     0.217 HD
ENDBRANCH 104 107
ENDBRANCH 100 101
ENDBRANCH  62 100
ENDBRANCH  59  62
ENDBRANCH   1  58
BRANCH   1 109
ATOM    109  CB  ILE d   5       2.136   4.283  24.825  0.00  0.00     0.013 C 
ATOM    110  CG2 ILE d   5       3.254   4.731  25.777  0.00  0.00     0.012 C 
BRANCH 109 111
ATOM    111  CG1 ILE d   5       2.676   3.605  23.534  0.00  0.00     0.002 C 
ATOM    112  CD1 ILE d   5       3.713   4.391  22.743  0.00  0.00     0.005 C 
ENDBRANCH 109 111
ENDBRANCH   1 109
TORSDOF 41
ENDMDL
MODEL 8
REMARK VINA RESULT:      -8.2      2.841      7.227
REMARK WARNING: 32 MAX_TORS EXCEEDED!!!
REMARK  41 active torsions:
REMARK  status: ('A' for Active; 'I' for Inactive)
REMARK    1  A    between atoms: CB_3  and  CG1_2 
REMARK    2  A    between atoms: CA_4  and  CB_3 
REMARK    3  A    between atoms: CA_4  and  C_6 
REMARK    4  A    between atoms: CA_4  and  N_7 
REMARK       I    between atoms: C_6  and  N_8 
REMARK       I    between atoms: N_7  and  C_10 
REMARK    5  A    between atoms: N_8  and  CA_11 
REMARK    6  A    between atoms: CA_12  and  C_10 
REMARK    7  A    between atoms: CA_11  and  CB_15 
REMARK    8  A    between atoms: CA_11  and  C_14 
REMARK    9  A    between atoms: CA_12  and  N_17 
REMARK   10  A    between atoms: CA_12  and  CB_16 
REMARK       I    between atoms: C_14  and  N_18 
REMARK   11  A    between atoms: CB_15  and  CG_20 
REMARK   12  A    between atoms: CB_16  and  CG_21 
REMARK       I    between atoms: N_17  and  C_22 
REMARK   13  A    between atoms: C_22  and  CA_29 
REMARK   14  A    between atoms: CA_24  and  C_33 
REMARK   15  A    between atoms: CA_29  and  N_39 
REMARK   16  A    between atoms: CA_29  and  CB_38 
REMARK       I    between atoms: C_33  and  N_40 
REMARK       I    between atoms: N_39  and  C_45 
REMARK   17  A    between atoms: N_40  and  CA_46 
REMARK   18  A    between atoms: CZ_42  and  OH_47 
REMARK   19  A    between atoms: CA_48  and  C_45 
REMARK   20  A    between atoms: CA_46  and  CB_51 
REMARK   21  A    between atoms: CA_46  and  C_50 
REMARK   22  A    between atoms: CA_48  and  N_52 
REMARK   23  A    between atoms: CA_48  and  CB_53 
REMARK       I    between atoms: C_50  and  N_54 
REMARK   24  A    between atoms: CB_51  and  CG_56 
REMARK       I    between atoms: N_52  and  C_57 
REMARK   25  A    between atoms: CB_53  and  CG_58 
REMARK   26  A    between atoms: N_54  and  CA_59 
REMARK   27  A    between atoms: C_57  and  CA_62 
REMARK   28  A    between atoms: CG_58  and  CD_64 
REMARK   29  A    between atoms: CA_59  and  CB_66 
REMARK   30  A    between atoms: CA_59  and  C_65 
REMARK   31  A    between atoms: CA_62  and  N_70 
REMARK   32  A    between atoms: CA_62  and  CB_69 
REMARK   33  A    between atoms: CD_64  and  NE_71 
REMARK       I    between atoms: C_65  and  N_72 
REMARK   34  A    between atoms: CB_66  and  CG_74 
REMARK   35  A    between atoms: CB_69  and  CG_76 
REMARK   36  A    between atoms: N_72  and  CA_78 
REMARK   37  A    between atoms: CG_76  and  OD1_82 
REMARK       I    between atoms: CZ_77  and  NH1_83 
REMARK       I    between atoms: CZ_77  and  NH2_84 
REMARK   38  A    between atoms: CA_78  and  CB_86 
REMARK   39  A    between atoms: CA_78  and  C_85 
REMARK   40  A    between atoms: C_85  and  O_90 
REMARK   41  A    between atoms: CB_86  and  CG_91 
ROOT
ATOM      1  CA  ILE d   5       3.146   3.244  25.761  0.00  0.00     0.180 C 
ENDROOT
BRANCH   1   2
ATOM      2  C   ILE d   5       1.762   3.364  26.485  0.00  0.00     0.241 C 
ATOM      3  O   ILE d   5       0.913   4.168  26.107  0.00  0.00    -0.271 OA
ATOM      4  N   HIS d   6       1.610   2.618  27.628  0.00  0.00    -0.346 N 
ATOM      5  H   HIS d   6       2.303   1.924  27.840  0.00  0.00     0.163 HD
BRANCH   4   6
ATOM      6  CA  HIS d   6       0.332   2.272  28.269  0.00  0.00     0.182 C 
BRANCH   6   7
ATOM      7  CB  HIS d   6       0.650   0.864  28.915  0.00  0.00     0.087 C 
BRANCH   7   8
ATOM      8  CG  HIS d   6      -0.403  -0.100  29.335  0.00  0.00     0.010 C 
ATOM      9  CD2 HIS d   6      -1.770  -0.159  29.119  0.00  0.00     0.136 C 
ATOM     10  NE2 HIS d   6      -2.263  -1.353  29.581  0.00  0.00    -0.260 NA
ATOM     11  CE1 HIS d   6      -1.217  -1.985  30.052  0.00  0.00     0.180 C 
ATOM     12  ND1 HIS d   6      -0.238  -1.062  30.325  0.00  0.00    -0.256 NA
ATOM     13  HD1 HIS d   6      -0.192  -0.749  31.281  0.00  0.00     0.134 HD
ENDBRANCH   7   8
ENDBRANCH   6   7
BRANCH   6  14
ATOM     14  C   HIS d   6       0.089   3.458  29.323  0.00  0.00     0.243 C 
ATOM     15  O   HIS d   6      -0.988   4.070  29.291  0.00  0.00    -0.271 OA
ATOM     16  N   PRO d   7       1.050   3.819  30.305  0.00  0.00    -0.337 N 
ATOM     17  CD  PRO d   7       1.933   2.854  30.964  0.00  0.00     0.127 C 
ATOM     18  CA  PRO d   7       0.680   4.870  31.328  0.00  0.00     0.179 C 
ATOM     19  CG  PRO d   7       1.473   2.851  32.424  0.00  0.00     0.022 C 
ATOM     20  CB  PRO d   7       0.430   3.964  32.543  0.00  0.00     0.037 C 
BRANCH  18  21
ATOM     21  C   PRO d   7       1.816   5.911  31.730  0.00  0.00     0.241 C 
ATOM     22  O   PRO d   7       2.265   5.926  32.883  0.00  0.00    -0.271 OA
ATOM     23  N   PHE d   8       2.420   6.823  30.881  0.00  0.00    -0.346 N 
ATOM     24  H   PHE d   8       3.047   7.357  31.473  0.00  0.00     0.163 HD
BRANCH  23  25
ATOM     25  CA  PHE d   8       1.991   7.563  29.648  0.00  0.00     0.180 C 
BRANCH  25  26
ATOM     26  CB  PHE d   8       2.634   9.018  29.566  0.00  0.00     0.073 C 
BRANCH  26  27
ATOM     27  CG  PHE d   8       2.643  10.012  30.746  0.00  0.00    -0.056 C 
ATOM     28  CD1 PHE d   8       3.466  11.139  30.728  0.00  0.00     0.007 C 
ATOM     29  CE1 PHE d   8       3.426  12.097  31.765  0.00  0.00     0.001 C 
ATOM     30  CZ  PHE d   8       2.615  11.916  32.888  0.00  0.00     0.000 C 
ATOM     31  CE2 PHE d   8       1.767  10.832  32.921  0.00  0.00     0.001 C 
ATOM     32  CD2 PHE d   8       1.734   9.968  31.828  0.00  0.00     0.007 C 
ENDBRANCH  26  27
ENDBRANCH  25  26
BRANCH  25  33
ATOM     33  C   PHE d   8       2.208   6.718  28.392  0.00  0.00     0.241 C 
ATOM     34  O   PHE d   8       2.785   5.645  28.476  0.00  0.00    -0.271 OA
ATOM     35  N   HIS d   9       1.853   7.121  27.145  0.00  0.00    -0.346 N 
ATOM     36  H   HIS d   9       2.054   6.342  26.537  0.00  0.00     0.163 HD
BRANCH  35  37
ATOM     37  CA  HIS d   9       0.964   8.172  26.612  0.00  0.00     0.182 C 
BRANCH  37  38
ATOM     38  CB  HIS d   9       1.355   9.119  25.447  0.00  0.00     0.093 C 
BRANCH  38  39
ATOM     39  CG  HIS d   9       2.662   9.776  25.568  0.00  0.00     0.030 C 
ATOM     40  CD2 HIS d   9       3.054  10.816  26.358  0.00  0.00     0.143 C 
ATOM     41  NE2 HIS d   9       4.406  10.993  26.303  0.00  0.00    -0.254 NA
ATOM     42  CE1 HIS d   9       4.825  10.130  25.410  0.00  0.00     0.207 C 
ATOM     43  ND1 HIS d   9       3.774   9.488  24.819  0.00  0.00    -0.353 N 
ATOM     44  HD1 HIS d   9       3.830   8.900  23.998  0.00  0.00     0.166 HD
ENDBRANCH  38  39
ENDBRANCH  37  38
BRANCH  37  45
ATOM     45  C   HIS d   9      -0.590   7.960  26.703  0.00  0.00     0.241 C 
ATOM     46  O   HIS d   9      -1.057   6.817  26.760  0.00  0.00    -0.271 OA
ATOM     47  N   LEU d  10      -1.521   8.962  26.631  0.00  0.00    -0.345 N 
ATOM     48  H   LEU d  10      -2.432   8.509  26.637  0.00  0.00     0.163 HD
BRANCH  47  49
ATOM     49  CA  LEU d  10      -1.601  10.233  27.385  0.00  0.00     0.182 C 
BRANCH  49  50
ATOM     50  CB  LEU d  10      -1.169  11.436  26.560  0.00  0.00     0.040 C 
BRANCH  50  51
ATOM     51  CG  LEU d  10      -0.296  12.421  27.296  0.00  0.00    -0.020 C 
ATOM     52  CD1 LEU d  10      -1.085  13.705  27.463  0.00  0.00     0.009 C 
ATOM     53  CD2 LEU d  10       0.239  11.775  28.562  0.00  0.00     0.009 C 
ENDBRANCH  50  51
ENDBRANCH  49  50
BRANCH  49  54
ATOM     54  C   LEU d  10      -2.974  10.333  28.095  0.00  0.00     0.163 C 
ATOM     55  OXT LEU d  10      -3.288  11.197  28.913  0.00  0.00    -0.648 OA
BRANCH  54  56
ATOM     56  O   LEU d  10      -3.826   9.358  27.720  0.00  0.00    -0.775 OA
ATOM     57  H   LEU d  10      -3.337   8.612  27.322  0.00  0.00     0.167 HD
ENDBRANCH  54  56
ENDBRANCH  49  54
ENDBRANCH  47  49
ENDBRANCH  37  45
ENDBRANCH  35  37
ENDBRANCH  25  33
ENDBRANCH  23  25
ENDBRANCH  18  21
ENDBRANCH   6  14
ENDBRANCH   4   6
ENDBRANCH   1   2
BRANCH   1  58
ATOM     58  N   ILE d   5       4.046   2.565  26.718  0.00  0.00    -0.346 N 
ATOM     59  C   TYR d   4       5.279   2.035  26.382  0.00  0.00     0.241 C 
ATOM     60  O   TYR d   4       5.652   1.983  25.213  0.00  0.00    -0.271 OA
ATOM     61  H   ILE d   5       3.970   2.905  27.672  0.00  0.00     0.163 HD
BRANCH  59  62
ATOM     62  CA  TYR d   4       6.168   1.492  27.563  0.00  0.00     0.180 C 
BRANCH  62  63
ATOM     63  N   TYR d   4       5.879   0.040  27.834  0.00  0.00    -0.346 N 
ATOM     64  C   VAL d   3       4.824  -0.322  28.669  0.00  0.00     0.241 C 
ATOM     65  O   VAL d   3       4.123   0.573  29.131  0.00  0.00    -0.271 OA
ATOM     66  H   TYR d   4       6.690  -0.561  27.901  0.00  0.00     0.163 HD
BRANCH  64  67
ATOM     67  CA  VAL d   3       4.607  -1.864  29.025  0.00  0.00     0.180 C 
BRANCH  67  68
ATOM     68  N   VAL d   3       5.361  -2.559  30.143  0.00  0.00    -0.346 N 
ATOM     69  C   ARG d   2       6.183  -2.287  31.194  0.00  0.00     0.241 C 
ATOM     70  O   ARG d   2       6.780  -3.277  31.642  0.00  0.00    -0.271 OA
ATOM     71  H   VAL d   3       5.584  -3.529  29.913  0.00  0.00     0.163 HD
BRANCH  69  72
ATOM     72  CA  ARG d   2       6.193  -0.938  31.921  0.00  0.00     0.176 C 
BRANCH  72  73
ATOM     73  N   ARG d   2       5.418  -1.039  33.164  0.00  0.00    -0.346 N 
ATOM     74  C   ASP d   1       4.128  -0.584  33.287  0.00  0.00     0.252 C 
ATOM     75  O   ASP d   1       3.579   0.159  32.469  0.00  0.00    -0.271 OA
ATOM     76  H   ARG d   2       5.646  -1.858  33.721  0.00  0.00     0.163 HD
BRANCH  74  77
ATOM     77  CA  ASP d   1       3.395  -1.017  34.585  0.00  0.00     0.318 C 
BRANCH  77  78
ATOM     78  N   ASP d   1       4.431  -1.443  35.569  0.00  0.00     0.092 N 
ATOM     79  H1  ASP d   1       5.080  -0.677  35.746  0.00  0.00     0.313 HD
ATOM     80  H2  ASP d   1       5.008  -2.159  35.104  0.00  0.00     0.313 HD
ENDBRANCH  77  78
BRANCH  77  81
ATOM     81  CB  ASP d   1       2.575   0.150  35.147  0.00  0.00     0.155 C 
BRANCH  81  82
ATOM     82  CG  ASP d   1       3.205   0.726  36.382  0.00  0.00     0.141 C 
ATOM     83  OD2 ASP d   1       4.198   1.432  36.434  0.00  0.00    -0.650 OA
BRANCH  82  84
ATOM     84  OD1 ASP d   1       2.496   0.449  37.493  0.00  0.00    -0.776 OA
ATOM     85  HD1 ASP d   1       3.081   0.698  38.236  0.00  0.00     0.167 HD
ENDBRANCH  82  84
ENDBRANCH  81  82
ENDBRANCH  77  81
ENDBRANCH  74  77
ENDBRANCH  72  73
BRANCH  72  86
ATOM     86  CB  ARG d   2       7.560  -0.226  31.883  0.00  0.00     0.037 C 
BRANCH  86  87
ATOM     87  CG  ARG d   2       7.682   1.306  31.874  0.00  0.00     0.024 C 
BRANCH  87  88
ATOM     88  CD  ARG d   2       6.467   2.078  31.373  0.00  0.00     0.152 C 
BRANCH  88  89
ATOM     89  NE  ARG d   2       6.388   3.366  32.041  0.00  0.00    -0.268 NA
ATOM     90  CZ  ARG d   2       5.699   3.572  33.078  0.00  0.00     0.143 C 
ATOM     91  NH1 ARG d   2       5.676   4.812  33.592  0.00  0.00    -0.278 NA
ATOM     92  NH2 ARG d   2       4.905   2.727  33.782  0.00  0.00    -0.278 NA
ATOM     93 1HH1 ARG d   2       6.435   5.374  33.179  0.00  0.00     0.126 HD
ATOM     94 2HH1 ARG d   2       5.590   4.910  34.587  0.00  0.00     0.126 HD
ATOM     95 1HH2 ARG d   2       5.046   1.740  33.593  0.00  0.00     0.126 HD
ATOM     96 2HH2 ARG d   2       4.839   2.915  34.783  0.00  0.00     0.126 HD
ENDBRANCH  88  89
ENDBRANCH  87  88
ENDBRANCH  86  87
ENDBRANCH  72  86
ENDBRANCH  69  72
ENDBRANCH  67  68
BRANCH  67  97
ATOM     97  CB  VAL d   3       3.108  -2.139  29.410  0.00  0.00     0.009 C 
ATOM     98  CG1 VAL d   3       2.329  -2.703  28.214  0.00  0.00     0.012 C 
ATOM     99  CG2 VAL d   3       2.869  -2.968  30.669  0.00  0.00     0.012 C 
ENDBRANCH  67  97
ENDBRANCH  64  67
ENDBRANCH  62  63
BRANCH  62 100
ATOM    100  CB  TYR d   4       7.696   1.732  27.330  0.00  0.00     0.073 C 
BRANCH 100 101
ATOM    101  CG  TYR d   4       8.441   2.669  28.276  0.00  0.00    -0.056 A 
ATOM    102  CD1 TYR d   4       9.688   2.320  28.823  0.00  0.00     0.010 A 
ATOM    103  CE1 TYR d   4      10.396   3.211  29.644  0.00  0.00     0.037 A 
ATOM    104  CZ  TYR d   4       9.864   4.452  29.946  0.00  0.00     0.065 A 
ATOM    105  CE2 TYR d   4       8.649   4.838  29.406  0.00  0.00     0.037 A 
ATOM    106  CD2 TYR d   4       7.968   3.953  28.559  0.00  0.00     0.010 A 
BRANCH 104 107
ATOM    107  OH  TYR d   4      10.556   5.297  30.754  0.00  0.00    -0.361 OA
ATOM    108  HH  TYR d   4      10.905   6.000  30.177  0.00  0.00     0.217 HD
ENDBRANCH 104 107
ENDBRANCH 100 101
ENDBRANCH  62 100
ENDBRANCH  59  62
ENDBRANCH   1  58
BRANCH   1 109
ATOM    109  CB  ILE d   5       3.080   2.715  24.275  0.00  0.00     0.013 C 
ATOM    110  CG2 ILE d   5       2.243   1.442  24.084  0.00  0.00     0.012 C 
BRANCH 109 111
ATOM    111  CG1 ILE d   5       2.672   3.859  23.304  0.00  0.00     0.002 C 
ATOM    112  CD1 ILE d   5       3.136   5.260  23.680  0.00  0.00     0.005 C 
ENDBRANCH 109 111
ENDBRANCH   1 109
TORSDOF 41
ENDMDL
MODEL 9
REMARK VINA RESULT:      -8.0      1.188      3.227
REMARK WARNING: 32 MAX_TORS EXCEEDED!!!
REMARK  41 active torsions:
REMARK  status: ('A' for Active; 'I' for Inactive)
REMARK    1  A    between atoms: CB_3  and  CG1_2 
REMARK    2  A    between atoms: CA_4  and  CB_3 
REMARK    3  A    between atoms: CA_4  and  C_6 
REMARK    4  A    between atoms: CA_4  and  N_7 
REMARK       I    between atoms: C_6  and  N_8 
REMARK       I    between atoms: N_7  and  C_10 
REMARK    5  A    between atoms: N_8  and  CA_11 
REMARK    6  A    between atoms: CA_12  and  C_10 
REMARK    7  A    between atoms: CA_11  and  CB_15 
REMARK    8  A    between atoms: CA_11  and  C_14 
REMARK    9  A    between atoms: CA_12  and  N_17 
REMARK   10  A    between atoms: CA_12  and  CB_16 
REMARK       I    between atoms: C_14  and  N_18 
REMARK   11  A    between atoms: CB_15  and  CG_20 
REMARK   12  A    between atoms: CB_16  and  CG_21 
REMARK       I    between atoms: N_17  and  C_22 
REMARK   13  A    between atoms: C_22  and  CA_29 
REMARK   14  A    between atoms: CA_24  and  C_33 
REMARK   15  A    between atoms: CA_29  and  N_39 
REMARK   16  A    between atoms: CA_29  and  CB_38 
REMARK       I    between atoms: C_33  and  N_40 
REMARK       I    between atoms: N_39  and  C_45 
REMARK   17  A    between atoms: N_40  and  CA_46 
REMARK   18  A    between atoms: CZ_42  and  OH_47 
REMARK   19  A    between atoms: CA_48  and  C_45 
REMARK   20  A    between atoms: CA_46  and  CB_51 
REMARK   21  A    between atoms: CA_46  and  C_50 
REMARK   22  A    between atoms: CA_48  and  N_52 
REMARK   23  A    between atoms: CA_48  and  CB_53 
REMARK       I    between atoms: C_50  and  N_54 
REMARK   24  A    between atoms: CB_51  and  CG_56 
REMARK       I    between atoms: N_52  and  C_57 
REMARK   25  A    between atoms: CB_53  and  CG_58 
REMARK   26  A    between atoms: N_54  and  CA_59 
REMARK   27  A    between atoms: C_57  and  CA_62 
REMARK   28  A    between atoms: CG_58  and  CD_64 
REMARK   29  A    between atoms: CA_59  and  CB_66 
REMARK   30  A    between atoms: CA_59  and  C_65 
REMARK   31  A    between atoms: CA_62  and  N_70 
REMARK   32  A    between atoms: CA_62  and  CB_69 
REMARK   33  A    between atoms: CD_64  and  NE_71 
REMARK       I    between atoms: C_65  and  N_72 
REMARK   34  A    between atoms: CB_66  and  CG_74 
REMARK   35  A    between atoms: CB_69  and  CG_76 
REMARK   36  A    between atoms: N_72  and  CA_78 
REMARK   37  A    between atoms: CG_76  and  OD1_82 
REMARK       I    between atoms: CZ_77  and  NH1_83 
REMARK       I    between atoms: CZ_77  and  NH2_84 
REMARK   38  A    between atoms: CA_78  and  CB_86 
REMARK   39  A    between atoms: CA_78  and  C_85 
REMARK   40  A    between atoms: C_85  and  O_90 
REMARK   41  A    between atoms: CB_86  and  CG_91 
ROOT
ATOM      1  CA  ILE d   5      -2.269   3.781  26.391  0.00  0.00     0.180 C 
ENDROOT
BRANCH   1   2
ATOM      2  C   ILE d   5      -1.613   5.144  25.983  0.00  0.00     0.241 C 
ATOM      3  O   ILE d   5      -1.718   5.586  24.841  0.00  0.00    -0.271 OA
ATOM      4  N   HIS d   6      -0.818   5.741  26.931  0.00  0.00    -0.346 N 
ATOM      5  H   HIS d   6      -0.837   5.376  27.866  0.00  0.00     0.163 HD
BRANCH   4   6
ATOM      6  CA  HIS d   6      -0.400   7.151  26.944  0.00  0.00     0.182 C 
BRANCH   6   7
ATOM      7  CB  HIS d   6      -1.283   7.752  28.111  0.00  0.00     0.087 C 
BRANCH   7   8
ATOM      8  CG  HIS d   6      -1.459   7.086  29.429  0.00  0.00     0.010 C 
ATOM      9  CD2 HIS d   6      -2.576   6.749  30.176  0.00  0.00     0.136 C 
ATOM     10  NE2 HIS d   6      -2.203   5.986  31.254  0.00  0.00    -0.260 NA
ATOM     11  CE1 HIS d   6      -0.903   5.870  31.145  0.00  0.00     0.180 C 
ATOM     12  ND1 HIS d   6      -0.440   6.893  30.355  0.00  0.00    -0.256 NA
ATOM     13  HD1 HIS d   6      -0.095   7.700  30.848  0.00  0.00     0.134 HD
ENDBRANCH   7   8
ENDBRANCH   6   7
BRANCH   6  14
ATOM     14  C   HIS d   6       1.174   7.090  27.251  0.00  0.00     0.243 C 
ATOM     15  O   HIS d   6       1.589   6.247  28.059  0.00  0.00    -0.271 OA
ATOM     16  N   PRO d   7       2.112   7.947  26.616  0.00  0.00    -0.337 N 
ATOM     17  CD  PRO d   7       1.978   8.408  25.232  0.00  0.00     0.127 C 
ATOM     18  CA  PRO d   7       3.585   7.731  26.883  0.00  0.00     0.179 C 
ATOM     19  CG  PRO d   7       3.142   7.742  24.493  0.00  0.00     0.022 C 
ATOM     20  CB  PRO d   7       3.985   7.049  25.566  0.00  0.00     0.037 C 
BRANCH  18  21
ATOM     21  C   PRO d   7       4.483   9.037  27.040  0.00  0.00     0.241 C 
ATOM     22  O   PRO d   7       4.099  10.116  26.574  0.00  0.00    -0.271 OA
ATOM     23  N   PHE d   8       5.693   9.115  27.711  0.00  0.00    -0.346 N 
ATOM     24  H   PHE d   8       6.012  10.066  27.566  0.00  0.00     0.163 HD
BRANCH  23  25
ATOM     25  CA  PHE d   8       6.806   8.150  27.997  0.00  0.00     0.180 C 
BRANCH  25  26
ATOM     26  CB  PHE d   8       7.442   7.555  26.663  0.00  0.00     0.073 C 
BRANCH  26  27
ATOM     27  CG  PHE d   8       7.494   6.047  26.344  0.00  0.00    -0.056 C 
ATOM     28  CD1 PHE d   8       7.589   5.596  25.027  0.00  0.00     0.007 C 
ATOM     29  CE1 PHE d   8       7.717   4.221  24.727  0.00  0.00     0.001 C 
ATOM     30  CZ  PHE d   8       7.676   3.253  25.733  0.00  0.00     0.000 C 
ATOM     31  CE2 PHE d   8       7.616   3.667  27.044  0.00  0.00     0.001 C 
ATOM     32  CD2 PHE d   8       7.617   5.033  27.321  0.00  0.00     0.007 C 
ENDBRANCH  26  27
ENDBRANCH  25  26
BRANCH  25  33
ATOM     33  C   PHE d   8       7.832   8.758  28.955  0.00  0.00     0.241 C 
ATOM     34  O   PHE d   8       8.592   9.626  28.557  0.00  0.00    -0.271 OA
ATOM     35  N   HIS d   9       8.003   8.339  30.235  0.00  0.00    -0.346 N 
ATOM     36  H   HIS d   9       8.690   8.959  30.637  0.00  0.00     0.163 HD
BRANCH  35  37
ATOM     37  CA  HIS d   9       7.202   7.532  31.175  0.00  0.00     0.182 C 
BRANCH  37  38
ATOM     38  CB  HIS d   9       5.815   7.968  31.716  0.00  0.00     0.093 C 
BRANCH  38  39
ATOM     39  CG  HIS d   9       5.368   9.311  31.325  0.00  0.00     0.030 C 
ATOM     40  CD2 HIS d   9       5.983  10.519  31.466  0.00  0.00     0.143 C 
ATOM     41  NE2 HIS d   9       5.309  11.497  30.794  0.00  0.00    -0.254 NA
ATOM     42  CE1 HIS d   9       4.236  10.908  30.327  0.00  0.00     0.207 C 
ATOM     43  ND1 HIS d   9       4.152   9.618  30.770  0.00  0.00    -0.353 N 
ATOM     44  HD1 HIS d   9       3.345   9.016  30.679  0.00  0.00     0.166 HD
ENDBRANCH  38  39
ENDBRANCH  37  38
BRANCH  37  45
ATOM     45  C   HIS d   9       7.359   5.970  31.149  0.00  0.00     0.241 C 
ATOM     46  O   HIS d   9       6.467   5.265  30.664  0.00  0.00    -0.271 OA
ATOM     47  N   LEU d  10       8.395   5.279  31.718  0.00  0.00    -0.345 N 
ATOM     48  H   LEU d  10       8.177   4.291  31.609  0.00  0.00     0.163 HD
BRANCH  47  49
ATOM     49  CA  LEU d  10       9.854   5.476  31.575  0.00  0.00     0.182 C 
BRANCH  49  50
ATOM     50  CB  LEU d  10      10.311   5.460  30.124  0.00  0.00     0.040 C 
BRANCH  50  51
ATOM     51  CG  LEU d  10      11.402   4.464  29.820  0.00  0.00    -0.020 C 
ATOM     52  CD1 LEU d  10      10.782   3.323  29.036  0.00  0.00     0.009 C 
ATOM     53  CD2 LEU d  10      12.575   5.179  29.175  0.00  0.00     0.009 C 
ENDBRANCH  50  51
ENDBRANCH  49  50
BRANCH  49  54
ATOM     54  C   LEU d  10      10.306   6.685  32.432  0.00  0.00     0.163 C 
ATOM     55  OXT LEU d  10       9.913   6.933  33.571  0.00  0.00    -0.648 OA
BRANCH  54  56
ATOM     56  O   LEU d  10      11.204   7.466  31.798  0.00  0.00    -0.775 OA
ATOM     57  H   LEU d  10      12.072   7.021  31.754  0.00  0.00     0.167 HD
ENDBRANCH  54  56
ENDBRANCH  49  54
ENDBRANCH  47  49
ENDBRANCH  37  45
ENDBRANCH  35  37
ENDBRANCH  25  33
ENDBRANCH  23  25
ENDBRANCH  18  21
ENDBRANCH   6  14
ENDBRANCH   4   6
ENDBRANCH   1   2
BRANCH   1  58
ATOM     58  N   ILE d   5      -1.273   3.089  27.236  0.00  0.00    -0.346 N 
ATOM     59  C   TYR d   4      -1.105   1.716  27.272  0.00  0.00     0.241 C 
ATOM     60  O   TYR d   4      -1.878   0.965  26.682  0.00  0.00    -0.271 OA
ATOM     61  H   ILE d   5      -0.432   3.630  27.414  0.00  0.00     0.163 HD
BRANCH  59  62
ATOM     62  CA  TYR d   4       0.110   1.167  28.109  0.00  0.00     0.180 C 
BRANCH  62  63
ATOM     63  N   TYR d   4       1.412   1.727  27.604  0.00  0.00    -0.346 N 
ATOM     64  C   VAL d   3       2.295   0.917  26.892  0.00  0.00     0.241 C 
ATOM     65  O   VAL d   3       1.955  -0.238  26.659  0.00  0.00    -0.271 OA
ATOM     66  H   TYR d   4       1.860   2.404  28.208  0.00  0.00     0.163 HD
BRANCH  64  67
ATOM     67  CA  VAL d   3       3.716   1.507  26.461  0.00  0.00     0.180 C 
BRANCH  67  68
ATOM     68  N   VAL d   3       4.990   0.685  26.507  0.00  0.00    -0.346 N 
ATOM     69  C   ARG d   2       6.040   0.406  27.329  0.00  0.00     0.241 C 
ATOM     70  O   ARG d   2       7.004  -0.126  26.757  0.00  0.00    -0.271 OA
ATOM     71  H   VAL d   3       5.364   0.500  25.575  0.00  0.00     0.163 HD
BRANCH  69  72
ATOM     72  CA  ARG d   2       5.958   0.506  28.855  0.00  0.00     0.176 C 
BRANCH  72  73
ATOM     73  N   ARG d   2       5.018  -0.499  29.368  0.00  0.00    -0.346 N 
ATOM     74  C   ASP d   1       3.771  -0.187  29.852  0.00  0.00     0.252 C 
ATOM     75  O   ASP d   1       3.407   0.958  30.130  0.00  0.00    -0.271 OA
ATOM     76  H   ARG d   2       5.093  -1.400  28.905  0.00  0.00     0.163 HD
BRANCH  74  77
ATOM     77  CA  ASP d   1       2.835  -1.400  30.097  0.00  0.00     0.318 C 
BRANCH  77  78
ATOM     78  N   ASP d   1       2.745  -2.168  28.823  0.00  0.00     0.092 N 
ATOM     79  H1  ASP d   1       2.111  -2.957  28.934  0.00  0.00     0.313 HD
ATOM     80  H2  ASP d   1       3.666  -2.604  28.671  0.00  0.00     0.313 HD
ENDBRANCH  77  78
BRANCH  77  81
ATOM     81  CB  ASP d   1       3.395  -2.287  31.215  0.00  0.00     0.155 C 
BRANCH  81  82
ATOM     82  CG  ASP d   1       3.746  -1.485  32.435  0.00  0.00     0.141 C 
ATOM     83  OD2 ASP d   1       2.978  -1.087  33.294  0.00  0.00    -0.650 OA
BRANCH  82  84
ATOM     84  OD1 ASP d   1       5.074  -1.294  32.555  0.00  0.00    -0.776 OA
ATOM     85  HD1 ASP d   1       5.220  -0.359  32.305  0.00  0.00     0.167 HD
ENDBRANCH  82  84
ENDBRANCH  81  82
ENDBRANCH  77  81
ENDBRANCH  74  77
ENDBRANCH  72  73
BRANCH  72  86
ATOM     86  CB  ARG d   2       7.321   0.749  29.532  0.00  0.00     0.037 C 
BRANCH  86  87
ATOM     87  CG  ARG d   2       7.604   2.006  30.372  0.00  0.00     0.024 C 
BRANCH  87  88
ATOM     88  CD  ARG d   2       7.566   1.830  31.885  0.00  0.00     0.152 C 
BRANCH  88  89
ATOM     89  NE  ARG d   2       6.231   1.436  32.305  0.00  0.00    -0.268 NA
ATOM     90  CZ  ARG d   2       5.373   2.248  32.749  0.00  0.00     0.143 C 
ATOM     91  NH1 ARG d   2       4.181   1.766  33.137  0.00  0.00    -0.278 NA
ATOM     92  NH2 ARG d   2       5.457   3.587  32.950  0.00  0.00    -0.278 NA
ATOM     93 1HH1 ARG d   2       4.064   0.804  32.786  0.00  0.00     0.126 HD
ATOM     94 2HH1 ARG d   2       3.373   2.348  33.013  0.00  0.00     0.126 HD
ATOM     95 1HH2 ARG d   2       6.229   4.049  32.479  0.00  0.00     0.126 HD
ATOM     96 2HH2 ARG d   2       4.584   4.105  32.842  0.00  0.00     0.126 HD
ENDBRANCH  88  89
ENDBRANCH  87  88
ENDBRANCH  86  87
ENDBRANCH  72  86
ENDBRANCH  69  72
ENDBRANCH  67  68
BRANCH  67  97
ATOM     97  CB  VAL d   3       3.685   1.994  24.968  0.00  0.00     0.009 C 
ATOM     98  CG1 VAL d   3       4.946   1.542  24.216  0.00  0.00     0.012 C 
ATOM     99  CG2 VAL d   3       2.422   1.673  24.172  0.00  0.00     0.012 C 
ENDBRANCH  67  97
ENDBRANCH  64  67
ENDBRANCH  62  63
BRANCH  62 100
ATOM    100  CB  TYR d   4      -0.055   1.412  29.645  0.00  0.00     0.073 C 
BRANCH 100 101
ATOM    101  CG  TYR d   4      -0.357   0.219  30.547  0.00  0.00    -0.056 A 
ATOM    102  CD1 TYR d   4      -0.147   0.276  31.936  0.00  0.00     0.010 A 
ATOM    103  CE1 TYR d   4      -0.483  -0.804  32.766  0.00  0.00     0.037 A 
ATOM    104  CZ  TYR d   4      -1.015  -1.960  32.224  0.00  0.00     0.065 A 
ATOM    105  CE2 TYR d   4      -1.256  -2.043  30.863  0.00  0.00     0.037 A 
ATOM    106  CD2 TYR d   4      -0.948  -0.945  30.049  0.00  0.00     0.010 A 
BRANCH 104 107
ATOM    107  OH  TYR d   4      -1.322  -3.001  33.041  0.00  0.00    -0.361 OA
ATOM    108  HH  TYR d   4      -1.841  -3.626  32.504  0.00  0.00     0.217 HD
ENDBRANCH 104 107
ENDBRANCH 100 101
ENDBRANCH  62 100
ENDBRANCH  59  62
ENDBRANCH   1  58
BRANCH   1 109
ATOM    109  CB  ILE d   5      -3.760   3.883  26.901  0.00  0.00     0.013 C 
ATOM    110  CG2 ILE d   5      -4.302   5.314  27.016  0.00  0.00     0.012 C 
BRANCH 109 111
ATOM    111  CG1 ILE d   5      -4.687   2.949  26.074  0.00  0.00     0.002 C 
ATOM    112  CD1 ILE d   5      -6.053   3.512  25.702  0.00  0.00     0.005 C 
ENDBRANCH 109 111
ENDBRANCH   1 109
TORSDOF 41
ENDMDL
