MODEL 1
REMARK VINA RESULT:      -4.5      0.000      0.000
REMARK  2 active torsions:
REMARK  status: ('A' for Active; 'I' for Inactive)
REMARK    1  A    between atoms: C_2  and  O_1 
REMARK    2  A    between atoms: C_3  and  C_2 
ROOT
ATOM      1  C   UNL d   1     -22.288  -7.933  11.824  0.00  0.00     0.213 C 
ATOM      2  O   UNL d   1     -22.033  -8.688  12.739  0.00  0.00    -0.644 OA
ENDROOT
BRANCH   1   3
ATOM      3  C   UNL d   1     -21.497  -7.897  10.521  0.00  0.00     0.218 C 
ATOM      4  C   UNL d   1     -21.416  -6.579   9.816  0.00  0.00     0.103 C 
ATOM      5  O   UNL d   1     -20.983  -8.943  10.137  0.00  0.00    -0.286 OA
ENDBRANCH   1   3
BRANCH   1   6
ATOM      6  O   UNL d   1     -23.282  -7.024  11.798  0.00  0.00    -0.771 OA
ATOM      7  H   UNL d   1     -23.225  -6.509  10.958  0.00  0.00     0.168 HD
ENDBRANCH   1   6
TORSDOF 2
ENDMDL
MODEL 2
REMARK VINA RESULT:      -4.1      1.481      2.566
REMARK  2 active torsions:
REMARK  status: ('A' for Active; 'I' for Inactive)
REMARK    1  A    between atoms: C_2  and  O_1 
REMARK    2  A    between atoms: C_3  and  C_2 
ROOT
ATOM      1  C   UNL d   1     -22.325  -8.032  11.992  0.00  0.00     0.213 C 
ATOM      2  O   UNL d   1     -21.797  -8.428  10.974  0.00  0.00    -0.644 OA
ENDROOT
BRANCH   1   3
ATOM      3  C   UNL d   1     -22.528  -6.554  12.311  0.00  0.00     0.218 C 
ATOM      4  C   UNL d   1     -22.572  -5.611  11.151  0.00  0.00     0.103 C 
ATOM      5  O   UNL d   1     -22.640  -6.237  13.492  0.00  0.00    -0.286 OA
ENDBRANCH   1   3
BRANCH   1   6
ATOM      6  O   UNL d   1     -22.810  -8.800  12.986  0.00  0.00    -0.771 OA
ATOM      7  H   UNL d   1     -23.499  -9.405  12.619  0.00  0.00     0.168 HD
ENDBRANCH   1   6
TORSDOF 2
ENDMDL
MODEL 3
REMARK VINA RESULT:      -3.9      5.711      6.465
REMARK  2 active torsions:
REMARK  status: ('A' for Active; 'I' for Inactive)
REMARK    1  A    between atoms: C_2  and  O_1 
REMARK    2  A    between atoms: C_3  and  C_2 
ROOT
ATOM      1  C   UNL d   1     -20.237 -12.794   8.449  0.00  0.00     0.213 C 
ATOM      2  O   UNL d   1     -19.731 -12.268   7.480  0.00  0.00    -0.644 OA
ENDROOT
BRANCH   1   3
ATOM      3  C   UNL d   1     -19.471 -13.108   9.730  0.00  0.00     0.218 C 
ATOM      4  C   UNL d   1     -19.176 -14.549  10.005  0.00  0.00     0.103 C 
ATOM      5  O   UNL d   1     -19.149 -12.165  10.447  0.00  0.00    -0.286 OA
ENDBRANCH   1   3
BRANCH   1   6
ATOM      6  O   UNL d   1     -21.523 -13.180   8.562  0.00  0.00    -0.771 OA
ATOM      7  H   UNL d   1     -21.883 -12.853   9.421  0.00  0.00     0.168 HD
ENDBRANCH   1   6
TORSDOF 2
ENDMDL
MODEL 4
REMARK VINA RESULT:      -3.8      0.860      2.097
REMARK  2 active torsions:
REMARK  status: ('A' for Active; 'I' for Inactive)
REMARK    1  A    between atoms: C_2  and  O_1 
REMARK    2  A    between atoms: C_3  and  C_2 
ROOT
ATOM      1  C   UNL d   1     -21.839  -8.167  11.872  0.00  0.00     0.213 C 
ATOM      2  O   UNL d   1     -22.403  -8.648  12.832  0.00  0.00    -0.644 OA
ENDROOT
BRANCH   1   3
ATOM      3  C   UNL d   1     -22.312  -6.898  11.170  0.00  0.00     0.218 C 
ATOM      4  C   UNL d   1     -21.526  -6.452   9.978  0.00  0.00     0.103 C 
ATOM      5  O   UNL d   1     -23.299  -6.329  11.626  0.00  0.00    -0.286 OA
ENDBRANCH   1   3
BRANCH   1   6
ATOM      6  O   UNL d   1     -20.732  -8.650  11.277  0.00  0.00    -0.771 OA
ATOM      7  H   UNL d   1     -20.447  -9.472  11.744  0.00  0.00     0.168 HD
ENDBRANCH   1   6
TORSDOF 2
ENDMDL
MODEL 5
REMARK VINA RESULT:      -3.8      1.136      2.717
REMARK  2 active torsions:
REMARK  status: ('A' for Active; 'I' for Inactive)
REMARK    1  A    between atoms: C_2  and  O_1 
REMARK    2  A    between atoms: C_3  and  C_2 
ROOT
ATOM      1  C   UNL d   1     -21.317  -7.925  10.230  0.00  0.00     0.213 C 
ATOM      2  O   UNL d   1     -21.143  -7.090   9.368  0.00  0.00    -0.644 OA
ENDROOT
BRANCH   1   3
ATOM      3  C   UNL d   1     -22.201  -7.697  11.452  0.00  0.00     0.218 C 
ATOM      4  C   UNL d   1     -22.771  -6.325  11.627  0.00  0.00     0.103 C 
ATOM      5  O   UNL d   1     -22.384  -8.647  12.208  0.00  0.00    -0.286 OA
ENDBRANCH   1   3
BRANCH   1   6
ATOM      6  O   UNL d   1     -20.780  -9.160  10.260  0.00  0.00    -0.771 OA
ATOM      7  H   UNL d   1     -19.814  -9.096  10.069  0.00  0.00     0.168 HD
ENDBRANCH   1   6
TORSDOF 2
ENDMDL
MODEL 6
REMARK VINA RESULT:      -3.6      1.376      2.105
REMARK  2 active torsions:
REMARK  status: ('A' for Active; 'I' for Inactive)
REMARK    1  A    between atoms: C_2  and  O_1 
REMARK    2  A    between atoms: C_3  and  C_2 
ROOT
ATOM      1  C   UNL d   1     -22.449  -6.414  12.414  0.00  0.00     0.213 C 
ATOM      2  O   UNL d   1     -22.116  -5.302  12.063  0.00  0.00    -0.644 OA
ENDROOT
BRANCH   1   3
ATOM      3  C   UNL d   1     -22.171  -7.670  11.594  0.00  0.00     0.218 C 
ATOM      4  C   UNL d   1     -21.512  -7.478  10.265  0.00  0.00     0.103 C 
ATOM      5  O   UNL d   1     -22.506  -8.749  12.074  0.00  0.00    -0.286 OA
ENDBRANCH   1   3
BRANCH   1   6
ATOM      6  O   UNL d   1     -23.100  -6.727  13.551  0.00  0.00    -0.771 OA
ATOM      7  H   UNL d   1     -22.458  -7.112  14.194  0.00  0.00     0.168 HD
ENDBRANCH   1   6
TORSDOF 2
ENDMDL
MODEL 7
REMARK VINA RESULT:      -3.5     13.789     14.706
REMARK  2 active torsions:
REMARK  status: ('A' for Active; 'I' for Inactive)
REMARK    1  A    between atoms: C_2  and  O_1 
REMARK    2  A    between atoms: C_3  and  C_2 
ROOT
ATOM      1  C   UNL d   1     -35.436  -6.740  15.762  0.00  0.00     0.213 C 
ATOM      2  O   UNL d   1     -36.103  -7.596  16.303  0.00  0.00    -0.644 OA
ENDROOT
BRANCH   1   3
ATOM      3  C   UNL d   1     -36.030  -5.479  15.144  0.00  0.00     0.218 C 
ATOM      4  C   UNL d   1     -36.403  -4.376  16.085  0.00  0.00     0.103 C 
ATOM      5  O   UNL d   1     -36.165  -5.451  13.924  0.00  0.00    -0.286 OA
ENDBRANCH   1   3
BRANCH   1   6
ATOM      6  O   UNL d   1     -34.097  -6.749  15.618  0.00  0.00    -0.771 OA
ATOM      7  H   UNL d   1     -33.681  -7.012  16.474  0.00  0.00     0.168 HD
ENDBRANCH   1   6
TORSDOF 2
ENDMDL
MODEL 8
REMARK VINA RESULT:      -3.5      6.966      7.608
REMARK  2 active torsions:
REMARK  status: ('A' for Active; 'I' for Inactive)
REMARK    1  A    between atoms: C_2  and  O_1 
REMARK    2  A    between atoms: C_3  and  C_2 
ROOT
ATOM      1  C   UNL d   1     -18.883  -3.481  16.209  0.00  0.00     0.213 C 
ATOM      2  O   UNL d   1     -17.990  -4.302  16.236  0.00  0.00    -0.644 OA
ENDROOT
BRANCH   1   3
ATOM      3  C   UNL d   1     -20.321  -3.793  16.608  0.00  0.00     0.218 C 
ATOM      4  C   UNL d   1     -20.518  -4.584  17.863  0.00  0.00     0.103 C 
ATOM      5  O   UNL d   1     -21.218  -3.379  15.878  0.00  0.00    -0.286 OA
ENDBRANCH   1   3
BRANCH   1   6
ATOM      6  O   UNL d   1     -18.766  -2.193  15.835  0.00  0.00    -0.771 OA
ATOM      7  H   UNL d   1     -19.400  -1.646  16.358  0.00  0.00     0.168 HD
ENDBRANCH   1   6
TORSDOF 2
ENDMDL
MODEL 9
REMARK VINA RESULT:      -3.5      5.649      6.114
REMARK  2 active torsions:
REMARK  status: ('A' for Active; 'I' for Inactive)
REMARK    1  A    between atoms: C_2  and  O_1 
REMARK    2  A    between atoms: C_3  and  C_2 
ROOT
ATOM      1  C   UNL d   1     -21.110  -3.997  16.444  0.00  0.00     0.213 C 
ATOM      2  O   UNL d   1     -21.391  -4.746  17.356  0.00  0.00    -0.644 OA
ENDROOT
BRANCH   1   3
ATOM      3  C   UNL d   1     -21.617  -4.184  15.018  0.00  0.00     0.218 C 
ATOM      4  C   UNL d   1     -21.562  -2.990  14.119  0.00  0.00     0.103 C 
ATOM      5  O   UNL d   1     -22.037  -5.295  14.704  0.00  0.00    -0.286 OA
ENDBRANCH   1   3
BRANCH   1   6
ATOM      6  O   UNL d   1     -20.327  -2.904  16.526  0.00  0.00    -0.771 OA
ATOM      7  H   UNL d   1     -19.383  -3.176  16.431  0.00  0.00     0.168 HD
ENDBRANCH   1   6
TORSDOF 2
ENDMDL
