MODEL 1
REMARK VINA RESULT:      -3.3      0.000      0.000
REMARK  2 active torsions:
REMARK  status: ('A' for Active; 'I' for Inactive)
REMARK    1  A    between atoms: C_2  and  O_1 
REMARK    2  A    between atoms: C_3  and  C_2 
ROOT
ATOM      1  C   UNL d   1     -23.866  37.230  18.545  0.00  0.00     0.213 C 
ATOM      2  O   UNL d   1     -23.632  36.130  18.999  0.00  0.00    -0.644 OA
ENDROOT
BRANCH   1   3
ATOM      3  C   UNL d   1     -23.217  37.768  17.274  0.00  0.00     0.218 C 
ATOM      4  C   UNL d   1     -21.727  37.901  17.281  0.00  0.00     0.103 C 
ATOM      5  O   UNL d   1     -23.954  38.056  16.335  0.00  0.00    -0.286 OA
ENDBRANCH   1   3
BRANCH   1   6
ATOM      6  O   UNL d   1     -24.712  38.141  19.064  0.00  0.00    -0.771 OA
ATOM      7  H   UNL d   1     -25.640  37.831  18.930  0.00  0.00     0.168 HD
ENDBRANCH   1   6
TORSDOF 2
ENDMDL
MODEL 2
REMARK VINA RESULT:      -3.3      1.645      2.054
REMARK  2 active torsions:
REMARK  status: ('A' for Active; 'I' for Inactive)
REMARK    1  A    between atoms: C_2  and  O_1 
REMARK    2  A    between atoms: C_3  and  C_2 
ROOT
ATOM      1  C   UNL d   1     -23.139  36.382  19.166  0.00  0.00     0.213 C 
ATOM      2  O   UNL d   1     -22.833  36.279  20.335  0.00  0.00    -0.644 OA
ENDROOT
BRANCH   1   3
ATOM      3  C   UNL d   1     -22.145  36.219  18.021  0.00  0.00     0.218 C 
ATOM      4  C   UNL d   1     -21.470  37.460  17.529  0.00  0.00     0.103 C 
ATOM      5  O   UNL d   1     -21.965  35.087  17.580  0.00  0.00    -0.286 OA
ENDBRANCH   1   3
BRANCH   1   6
ATOM      6  O   UNL d   1     -24.369  36.649  18.687  0.00  0.00    -0.771 OA
ATOM      7  H   UNL d   1     -24.306  37.377  18.023  0.00  0.00     0.168 HD
ENDBRANCH   1   6
TORSDOF 2
ENDMDL
MODEL 3
REMARK VINA RESULT:      -2.8      2.101      3.006
REMARK  2 active torsions:
REMARK  status: ('A' for Active; 'I' for Inactive)
REMARK    1  A    between atoms: C_2  and  O_1 
REMARK    2  A    between atoms: C_3  and  C_2 
ROOT
ATOM      1  C   UNL d   1     -22.118  34.963  18.225  0.00  0.00     0.213 C 
ATOM      2  O   UNL d   1     -21.528  34.648  17.213  0.00  0.00    -0.644 OA
ENDROOT
BRANCH   1   3
ATOM      3  C   UNL d   1     -22.820  36.305  18.402  0.00  0.00     0.218 C 
ATOM      4  C   UNL d   1     -22.168  37.497  17.776  0.00  0.00     0.103 C 
ATOM      5  O   UNL d   1     -23.866  36.321  19.045  0.00  0.00    -0.286 OA
ENDBRANCH   1   3
BRANCH   1   6
ATOM      6  O   UNL d   1     -22.253  34.210  19.333  0.00  0.00    -0.771 OA
ATOM      7  H   UNL d   1     -21.383  33.797  19.551  0.00  0.00     0.168 HD
ENDBRANCH   1   6
TORSDOF 2
ENDMDL
MODEL 4
REMARK VINA RESULT:      -2.7     24.662     25.670
REMARK  2 active torsions:
REMARK  status: ('A' for Active; 'I' for Inactive)
REMARK    1  A    between atoms: C_2  and  O_1 
REMARK    2  A    between atoms: C_3  and  C_2 
ROOT
ATOM      1  C   UNL d   1      -4.473  38.471   0.534  0.00  0.00     0.213 C 
ATOM      2  O   UNL d   1      -4.566  39.650   0.264  0.00  0.00    -0.644 OA
ENDROOT
BRANCH   1   3
ATOM      3  C   UNL d   1      -4.031  37.957   1.900  0.00  0.00     0.218 C 
ATOM      4  C   UNL d   1      -2.613  37.497   2.022  0.00  0.00     0.103 C 
ATOM      5  O   UNL d   1      -4.863  37.951   2.804  0.00  0.00    -0.286 OA
ENDBRANCH   1   3
BRANCH   1   6
ATOM      6  O   UNL d   1      -4.737  37.443  -0.295  0.00  0.00    -0.771 OA
ATOM      7  H   UNL d   1      -5.530  37.663  -0.840  0.00  0.00     0.168 HD
ENDBRANCH   1   6
TORSDOF 2
ENDMDL
MODEL 5
REMARK VINA RESULT:      -2.7      5.614      6.336
REMARK  2 active torsions:
REMARK  status: ('A' for Active; 'I' for Inactive)
REMARK    1  A    between atoms: C_2  and  O_1 
REMARK    2  A    between atoms: C_3  and  C_2 
ROOT
ATOM      1  C   UNL d   1     -19.219  34.165  15.436  0.00  0.00     0.213 C 
ATOM      2  O   UNL d   1     -18.781  34.578  16.489  0.00  0.00    -0.644 OA
ENDROOT
BRANCH   1   3
ATOM      3  C   UNL d   1     -20.582  33.495  15.298  0.00  0.00     0.218 C 
ATOM      4  C   UNL d   1     -20.600  32.108  14.737  0.00  0.00     0.103 C 
ATOM      5  O   UNL d   1     -21.569  34.133  15.654  0.00  0.00    -0.286 OA
ENDBRANCH   1   3
BRANCH   1   6
ATOM      6  O   UNL d   1     -18.599  34.223  14.241  0.00  0.00    -0.771 OA
ATOM      7  H   UNL d   1     -19.276  34.169  13.524  0.00  0.00     0.168 HD
ENDBRANCH   1   6
TORSDOF 2
ENDMDL
MODEL 6
REMARK VINA RESULT:      -2.7      2.131      3.043
REMARK  2 active torsions:
REMARK  status: ('A' for Active; 'I' for Inactive)
REMARK    1  A    between atoms: C_2  and  O_1 
REMARK    2  A    between atoms: C_3  and  C_2 
ROOT
ATOM      1  C   UNL d   1     -23.114  36.706  18.605  0.00  0.00     0.213 C 
ATOM      2  O   UNL d   1     -22.485  37.589  18.062  0.00  0.00    -0.644 OA
ENDROOT
BRANCH   1   3
ATOM      3  C   UNL d   1     -22.471  35.443  19.169  0.00  0.00     0.218 C 
ATOM      4  C   UNL d   1     -21.848  34.504  18.184  0.00  0.00     0.103 C 
ATOM      5  O   UNL d   1     -22.508  35.278  20.385  0.00  0.00    -0.286 OA
ENDBRANCH   1   3
BRANCH   1   6
ATOM      6  O   UNL d   1     -24.446  36.685  18.802  0.00  0.00    -0.771 OA
ATOM      7  H   UNL d   1     -24.799  37.603  18.718  0.00  0.00     0.168 HD
ENDBRANCH   1   6
TORSDOF 2
ENDMDL
MODEL 7
REMARK VINA RESULT:      -2.6     22.765     23.551
REMARK  2 active torsions:
REMARK  status: ('A' for Active; 'I' for Inactive)
REMARK    1  A    between atoms: C_2  and  O_1 
REMARK    2  A    between atoms: C_3  and  C_2 
ROOT
ATOM      1  C   UNL d   1     -14.802  34.005  -3.823  0.00  0.00     0.213 C 
ATOM      2  O   UNL d   1     -14.783  34.619  -4.869  0.00  0.00    -0.644 OA
ENDROOT
BRANCH   1   3
ATOM      3  C   UNL d   1     -13.657  34.029  -2.816  0.00  0.00     0.218 C 
ATOM      4  C   UNL d   1     -12.481  33.151  -3.109  0.00  0.00     0.103 C 
ATOM      5  O   UNL d   1     -13.774  34.760  -1.836  0.00  0.00    -0.286 OA
ENDBRANCH   1   3
BRANCH   1   6
ATOM      6  O   UNL d   1     -15.803  33.221  -3.380  0.00  0.00    -0.771 OA
ATOM      7  H   UNL d   1     -15.690  33.069  -2.411  0.00  0.00     0.168 HD
ENDBRANCH   1   6
TORSDOF 2
ENDMDL
MODEL 8
REMARK VINA RESULT:      -2.6      2.132      3.150
REMARK  2 active torsions:
REMARK  status: ('A' for Active; 'I' for Inactive)
REMARK    1  A    between atoms: C_2  and  O_1 
REMARK    2  A    between atoms: C_3  and  C_2 
ROOT
ATOM      1  C   UNL d   1     -22.245  37.618  16.455  0.00  0.00     0.213 C 
ATOM      2  O   UNL d   1     -23.012  37.733  15.523  0.00  0.00    -0.644 OA
ENDROOT
BRANCH   1   3
ATOM      3  C   UNL d   1     -22.371  36.530  17.516  0.00  0.00     0.218 C 
ATOM      4  C   UNL d   1     -23.045  36.908  18.796  0.00  0.00     0.103 C 
ATOM      5  O   UNL d   1     -21.912  35.422  17.253  0.00  0.00    -0.286 OA
ENDBRANCH   1   3
BRANCH   1   6
ATOM      6  O   UNL d   1     -21.182  38.405  16.710  0.00  0.00    -0.771 OA
ATOM      7  H   UNL d   1     -21.192  39.172  16.089  0.00  0.00     0.168 HD
ENDBRANCH   1   6
TORSDOF 2
ENDMDL
MODEL 9
REMARK VINA RESULT:      -2.6     24.496     25.624
REMARK  2 active torsions:
REMARK  status: ('A' for Active; 'I' for Inactive)
REMARK    1  A    between atoms: C_2  and  O_1 
REMARK    2  A    between atoms: C_3  and  C_2 
ROOT
ATOM      1  C   UNL d   1      -4.389  38.017   1.675  0.00  0.00     0.213 C 
ATOM      2  O   UNL d   1      -4.691  38.561   0.634  0.00  0.00    -0.644 OA
ENDROOT
BRANCH   1   3
ATOM      3  C   UNL d   1      -3.075  37.270   1.880  0.00  0.00     0.218 C 
ATOM      4  C   UNL d   1      -2.520  36.540   0.698  0.00  0.00     0.103 C 
ATOM      5  O   UNL d   1      -2.562  37.315   2.995  0.00  0.00    -0.286 OA
ENDBRANCH   1   3
BRANCH   1   6
ATOM      6  O   UNL d   1      -5.134  37.976   2.796  0.00  0.00    -0.771 OA
ATOM      7  H   UNL d   1      -4.770  37.286   3.400  0.00  0.00     0.168 HD
ENDBRANCH   1   6
TORSDOF 2
ENDMDL
