MODEL 1
REMARK VINA RESULT:      -7.4      0.000      0.000
REMARK  13 active torsions:
REMARK  status: ('A' for Active; 'I' for Inactive)
REMARK    1  A    between atoms: C_2  and  O_1 
REMARK    2  A    between atoms: C_3  and  C_5 
REMARK    3  A    between atoms: C_4  and  O_7 
REMARK    4  A    between atoms: C_5  and  O_9 
REMARK    5  A    between atoms: C_8  and  C_11 
REMARK    6  A    between atoms: C_8  and  O_10 
REMARK    7  A    between atoms: O_9  and  P_12 
REMARK    8  A    between atoms: C_11  and  O_13 
REMARK    9  A    between atoms: P_12  and  O_15 
REMARK   10  A    between atoms: P_12  and  O_16 
REMARK   11  A    between atoms: O_13  and  P_17 
REMARK   12  A    between atoms: P_17  and  O_19 
REMARK   13  A    between atoms: P_17  and  O_20 
ROOT
ATOM      1  C   UNL d   1     -26.708  25.325  19.144  0.00  0.00     0.183 C 
ATOM      2  C   UNL d   1     -25.296  24.854  18.802  0.00  0.00     0.181 C 
ATOM      3  C   UNL d   1     -26.614  25.785  20.597  0.00  0.00     0.213 C 
ATOM      4  O   UNL d   1     -24.715  24.389  20.034  0.00  0.00    -0.341 OA
ATOM      5  C   UNL d   1     -25.351  25.047  21.132  0.00  0.00     0.213 C 
ENDROOT
BRANCH   5   6
ATOM      6  C   UNL d   1     -24.298  25.922  21.810  0.00  0.00     0.251 C 
BRANCH   6   7
ATOM      7  O   UNL d   1     -23.002  25.667  21.296  0.00  0.00    -0.292 OA
BRANCH   7   8
ATOM      8  P   UNL d   1     -21.906  26.812  21.483  0.00  0.00     0.390 P 
ATOM      9  O   UNL d   1     -21.859  27.487  22.805  0.00  0.00    -0.632 OA
BRANCH   8  10
ATOM     10  O   UNL d   1     -20.531  26.090  21.105  0.00  0.00    -0.307 OA
ATOM     11  H   UNL d   1     -20.605  25.714  20.211  0.00  0.00     0.222 HD
ENDBRANCH   8  10
BRANCH   8  12
ATOM     12  O   UNL d   1     -22.161  27.777  20.249  0.00  0.00    -0.307 OA
ATOM     13  H   UNL d   1     -21.496  28.480  20.201  0.00  0.00     0.222 HD
ENDBRANCH   8  12
ENDBRANCH   7   8
ENDBRANCH   6   7
ENDBRANCH   5   6
BRANCH   5  14
ATOM     14  O   UNL d   1     -25.733  24.027  22.049  0.00  0.00    -0.362 OA
ATOM     15  H   UNL d   1     -25.403  23.195  21.672  0.00  0.00     0.213 HD
ENDBRANCH   5  14
BRANCH   3  16
ATOM     16  O   UNL d   1     -26.623  27.213  20.645  0.00  0.00    -0.387 OA
ATOM     17  H   UNL d   1     -27.472  27.580  20.358  0.00  0.00     0.210 HD
ENDBRANCH   3  16
BRANCH   1  18
ATOM     18  O   UNL d   1     -27.615  24.219  19.059  0.00  0.00    -0.390 OA
ATOM     19  H   UNL d   1     -28.516  24.572  19.183  0.00  0.00     0.210 HD
ENDBRANCH   1  18
BRANCH   2  20
ATOM     20  C   UNL d   1     -24.410  25.969  18.229  0.00  0.00     0.215 C 
BRANCH  20  21
ATOM     21  O   UNL d   1     -23.589  25.433  17.193  0.00  0.00    -0.294 OA
BRANCH  21  22
ATOM     22  P   UNL d   1     -22.200  26.400  16.837  0.00  0.00     0.390 P 
ATOM     23  O   UNL d   1     -20.957  27.266  16.518  0.00  0.00    -0.632 OA
BRANCH  22  24
ATOM     24  O   UNL d   1     -21.843  25.332  15.655  0.00  0.00    -0.307 OA
ATOM     25  H   UNL d   1     -21.788  25.853  14.828  0.00  0.00     0.222 HD
ENDBRANCH  22  24
BRANCH  22  26
ATOM     26  O   UNL d   1     -23.213  27.296  15.918  0.00  0.00    -0.307 OA
ATOM     27  H   UNL d   1     -23.575  28.002  16.485  0.00  0.00     0.222 HD
ENDBRANCH  22  26
ENDBRANCH  21  22
ENDBRANCH  20  21
ENDBRANCH   2  20
TORSDOF 13
ENDMDL
MODEL 2
REMARK VINA RESULT:      -7.4     28.316     29.805
REMARK  13 active torsions:
REMARK  status: ('A' for Active; 'I' for Inactive)
REMARK    1  A    between atoms: C_2  and  O_1 
REMARK    2  A    between atoms: C_3  and  C_5 
REMARK    3  A    between atoms: C_4  and  O_7 
REMARK    4  A    between atoms: C_5  and  O_9 
REMARK    5  A    between atoms: C_8  and  C_11 
REMARK    6  A    between atoms: C_8  and  O_10 
REMARK    7  A    between atoms: O_9  and  P_12 
REMARK    8  A    between atoms: C_11  and  O_13 
REMARK    9  A    between atoms: P_12  and  O_15 
REMARK   10  A    between atoms: P_12  and  O_16 
REMARK   11  A    between atoms: O_13  and  P_17 
REMARK   12  A    between atoms: P_17  and  O_19 
REMARK   13  A    between atoms: P_17  and  O_20 
ROOT
ATOM      1  C   UNL d   1      -4.680   5.249  21.784  0.00  0.00     0.183 C 
ATOM      2  C   UNL d   1      -4.023   3.978  21.249  0.00  0.00     0.181 C 
ATOM      3  C   UNL d   1      -6.163   4.897  21.881  0.00  0.00     0.213 C 
ATOM      4  O   UNL d   1      -5.018   3.315  20.447  0.00  0.00    -0.341 OA
ATOM      5  C   UNL d   1      -6.318   3.697  20.900  0.00  0.00     0.213 C 
ENDROOT
BRANCH   5   6
ATOM      6  C   UNL d   1      -6.989   2.448  21.468  0.00  0.00     0.251 C 
BRANCH   6   7
ATOM      7  O   UNL d   1      -7.220   1.479  20.460  0.00  0.00    -0.292 OA
BRANCH   7   8
ATOM      8  P   UNL d   1      -8.735   1.232  20.021  0.00  0.00     0.390 P 
ATOM      9  O   UNL d   1      -9.078  -0.128  19.531  0.00  0.00    -0.632 OA
BRANCH   8  10
ATOM     10  O   UNL d   1      -9.580   1.659  21.309  0.00  0.00    -0.307 OA
ATOM     11  H   UNL d   1      -9.049   1.496  22.106  0.00  0.00     0.222 HD
ENDBRANCH   8  10
BRANCH   8  12
ATOM     12  O   UNL d   1      -9.022   2.405  18.992  0.00  0.00    -0.307 OA
ATOM     13  H   UNL d   1      -8.512   3.200  19.205  0.00  0.00     0.222 HD
ENDBRANCH   8  12
ENDBRANCH   7   8
ENDBRANCH   6   7
ENDBRANCH   5   6
BRANCH   5  14
ATOM     14  O   UNL d   1      -7.046   4.101  19.745  0.00  0.00    -0.362 OA
ATOM     15  H   UNL d   1      -7.979   4.122  20.014  0.00  0.00     0.213 HD
ENDBRANCH   5  14
BRANCH   3  16
ATOM     16  O   UNL d   1      -6.515   4.691  23.250  0.00  0.00    -0.387 OA
ATOM     17  H   UNL d   1      -6.350   3.779  23.533  0.00  0.00     0.210 HD
ENDBRANCH   3  16
BRANCH   1  18
ATOM     18  O   UNL d   1      -4.509   6.311  20.839  0.00  0.00    -0.390 OA
ATOM     19  H   UNL d   1      -3.968   5.964  20.106  0.00  0.00     0.210 HD
ENDBRANCH   1  18
BRANCH   2  20
ATOM     20  C   UNL d   1      -3.566   3.021  22.358  0.00  0.00     0.215 C 
BRANCH  20  21
ATOM     21  O   UNL d   1      -3.048   3.780  23.450  0.00  0.00    -0.294 OA
BRANCH  21  22
ATOM     22  P   UNL d   1      -3.125   2.954  24.968  0.00  0.00     0.390 P 
ATOM     23  O   UNL d   1      -3.194   2.213  26.326  0.00  0.00    -0.632 OA
BRANCH  22  24
ATOM     24  O   UNL d   1      -4.733   2.805  24.728  0.00  0.00    -0.307 OA
ATOM     25  H   UNL d   1      -4.837   2.201  23.965  0.00  0.00     0.222 HD
ENDBRANCH  22  24
BRANCH  22  26
ATOM     26  O   UNL d   1      -2.729   1.614  24.118  0.00  0.00    -0.307 OA
ATOM     27  H   UNL d   1      -1.940   1.224  24.537  0.00  0.00     0.222 HD
ENDBRANCH  22  26
ENDBRANCH  21  22
ENDBRANCH  20  21
ENDBRANCH   2  20
TORSDOF 13
ENDMDL
MODEL 3
REMARK VINA RESULT:      -7.4      2.267      3.901
REMARK  13 active torsions:
REMARK  status: ('A' for Active; 'I' for Inactive)
REMARK    1  A    between atoms: C_2  and  O_1 
REMARK    2  A    between atoms: C_3  and  C_5 
REMARK    3  A    between atoms: C_4  and  O_7 
REMARK    4  A    between atoms: C_5  and  O_9 
REMARK    5  A    between atoms: C_8  and  C_11 
REMARK    6  A    between atoms: C_8  and  O_10 
REMARK    7  A    between atoms: O_9  and  P_12 
REMARK    8  A    between atoms: C_11  and  O_13 
REMARK    9  A    between atoms: P_12  and  O_15 
REMARK   10  A    between atoms: P_12  and  O_16 
REMARK   11  A    between atoms: O_13  and  P_17 
REMARK   12  A    between atoms: P_17  and  O_19 
REMARK   13  A    between atoms: P_17  and  O_20 
ROOT
ATOM      1  C   UNL d   1     -22.165  23.895  19.498  0.00  0.00     0.183 C 
ATOM      2  C   UNL d   1     -21.390  25.104  20.018  0.00  0.00     0.181 C 
ATOM      3  C   UNL d   1     -23.632  24.278  19.678  0.00  0.00     0.213 C 
ATOM      4  O   UNL d   1     -22.219  25.713  21.025  0.00  0.00    -0.341 OA
ATOM      5  C   UNL d   1     -23.588  25.393  20.764  0.00  0.00     0.213 C 
ENDROOT
BRANCH   5   6
ATOM      6  C   UNL d   1     -24.303  26.697  20.418  0.00  0.00     0.251 C 
BRANCH   6   7
ATOM      7  O   UNL d   1     -25.707  26.515  20.345  0.00  0.00    -0.292 OA
BRANCH   7   8
ATOM      8  P   UNL d   1     -26.442  27.037  19.027  0.00  0.00     0.390 P 
ATOM      9  O   UNL d   1     -27.409  28.152  19.195  0.00  0.00    -0.632 OA
BRANCH   8  10
ATOM     10  O   UNL d   1     -25.240  27.401  18.039  0.00  0.00    -0.307 OA
ATOM     11  H   UNL d   1     -24.793  28.201  18.363  0.00  0.00     0.222 HD
ENDBRANCH   8  10
BRANCH   8  12
ATOM     12  O   UNL d   1     -27.049  25.716  18.390  0.00  0.00    -0.307 OA
ATOM     13  H   UNL d   1     -27.049  25.754  17.422  0.00  0.00     0.222 HD
ENDBRANCH   8  12
ENDBRANCH   7   8
ENDBRANCH   6   7
ENDBRANCH   5   6
BRANCH   5  14
ATOM     14  O   UNL d   1     -24.128  24.905  21.987  0.00  0.00    -0.362 OA
ATOM     15  H   UNL d   1     -24.982  25.353  22.097  0.00  0.00     0.213 HD
ENDBRANCH   5  14
BRANCH   3  16
ATOM     16  O   UNL d   1     -24.197  24.606  18.407  0.00  0.00    -0.387 OA
ATOM     17  H   UNL d   1     -23.517  24.841  17.758  0.00  0.00     0.210 HD
ENDBRANCH   3  16
BRANCH   1  18
ATOM     18  O   UNL d   1     -21.874  22.753  20.313  0.00  0.00    -0.390 OA
ATOM     19  H   UNL d   1     -20.904  22.658  20.343  0.00  0.00     0.210 HD
ENDBRANCH   1  18
BRANCH   2  20
ATOM     20  C   UNL d   1     -21.092  26.144  18.929  0.00  0.00     0.215 C 
BRANCH  20  21
ATOM     21  O   UNL d   1     -21.265  25.544  17.646  0.00  0.00    -0.294 OA
BRANCH  21  22
ATOM     22  P   UNL d   1     -22.258  26.470  16.574  0.00  0.00     0.390 P 
ATOM     23  O   UNL d   1     -23.146  27.299  15.615  0.00  0.00    -0.632 OA
BRANCH  22  24
ATOM     24  O   UNL d   1     -21.100  27.620  16.605  0.00  0.00    -0.307 OA
ATOM     25  H   UNL d   1     -20.931  27.858  15.671  0.00  0.00     0.222 HD
ENDBRANCH  22  24
BRANCH  22  26
ATOM     26  O   UNL d   1     -21.563  25.599  15.377  0.00  0.00    -0.307 OA
ATOM     27  H   UNL d   1     -21.855  25.982  14.530  0.00  0.00     0.222 HD
ENDBRANCH  22  26
ENDBRANCH  21  22
ENDBRANCH  20  21
ENDBRANCH   2  20
TORSDOF 13
ENDMDL
MODEL 4
REMARK VINA RESULT:      -7.3      2.935      5.238
REMARK  13 active torsions:
REMARK  status: ('A' for Active; 'I' for Inactive)
REMARK    1  A    between atoms: C_2  and  O_1 
REMARK    2  A    between atoms: C_3  and  C_5 
REMARK    3  A    between atoms: C_4  and  O_7 
REMARK    4  A    between atoms: C_5  and  O_9 
REMARK    5  A    between atoms: C_8  and  C_11 
REMARK    6  A    between atoms: C_8  and  O_10 
REMARK    7  A    between atoms: O_9  and  P_12 
REMARK    8  A    between atoms: C_11  and  O_13 
REMARK    9  A    between atoms: P_12  and  O_15 
REMARK   10  A    between atoms: P_12  and  O_16 
REMARK   11  A    between atoms: O_13  and  P_17 
REMARK   12  A    between atoms: P_17  and  O_19 
REMARK   13  A    between atoms: P_17  and  O_20 
ROOT
ATOM      1  C   UNL d   1     -21.542  25.577  16.739  0.00  0.00     0.183 C 
ATOM      2  C   UNL d   1     -22.953  25.165  17.156  0.00  0.00     0.181 C 
ATOM      3  C   UNL d   1     -21.444  27.050  17.130  0.00  0.00     0.213 C 
ATOM      4  O   UNL d   1     -23.763  26.351  17.063  0.00  0.00    -0.341 OA
ATOM      5  C   UNL d   1     -22.931  27.504  17.217  0.00  0.00     0.213 C 
ENDROOT
BRANCH   5   6
ATOM      6  C   UNL d   1     -23.347  28.197  18.512  0.00  0.00     0.251 C 
BRANCH   6   7
ATOM      7  O   UNL d   1     -22.378  29.144  18.928  0.00  0.00    -0.292 OA
BRANCH   7   8
ATOM      8  P   UNL d   1     -22.832  30.674  18.988  0.00  0.00     0.390 P 
ATOM      9  O   UNL d   1     -24.020  30.988  19.822  0.00  0.00    -0.632 OA
BRANCH   8  10
ATOM     10  O   UNL d   1     -21.516  31.444  19.467  0.00  0.00    -0.307 OA
ATOM     11  H   UNL d   1     -21.451  31.391  20.435  0.00  0.00     0.222 HD
ENDBRANCH   8  10
BRANCH   8  12
ATOM     12  O   UNL d   1     -22.959  31.086  17.461  0.00  0.00    -0.307 OA
ATOM     13  H   UNL d   1     -22.133  30.931  16.979  0.00  0.00     0.222 HD
ENDBRANCH   8  12
ENDBRANCH   7   8
ENDBRANCH   6   7
ENDBRANCH   5   6
BRANCH   5  14
ATOM     14  O   UNL d   1     -23.241  28.373  16.132  0.00  0.00    -0.362 OA
ATOM     15  H   UNL d   1     -23.400  29.244  16.529  0.00  0.00     0.213 HD
ENDBRANCH   5  14
BRANCH   3  16
ATOM     16  O   UNL d   1     -20.637  27.178  18.302  0.00  0.00    -0.387 OA
ATOM     17  H   UNL d   1     -19.846  27.713  18.140  0.00  0.00     0.210 HD
ENDBRANCH   3  16
BRANCH   1  18
ATOM     18  O   UNL d   1     -21.409  25.457  15.317  0.00  0.00    -0.390 OA
ATOM     19  H   UNL d   1     -21.517  24.515  15.094  0.00  0.00     0.210 HD
ENDBRANCH   1  18
BRANCH   2  20
ATOM     20  C   UNL d   1     -23.025  24.630  18.593  0.00  0.00     0.215 C 
BRANCH  20  21
ATOM     21  O   UNL d   1     -21.768  24.838  19.236  0.00  0.00    -0.294 OA
BRANCH  21  22
ATOM     22  P   UNL d   1     -21.908  25.359  20.880  0.00  0.00     0.390 P 
ATOM     23  O   UNL d   1     -22.032  25.825  22.351  0.00  0.00    -0.632 OA
BRANCH  22  24
ATOM     24  O   UNL d   1     -21.875  23.784  21.310  0.00  0.00    -0.307 OA
ATOM     25  H   UNL d   1     -21.378  23.323  20.604  0.00  0.00     0.222 HD
ENDBRANCH  22  24
BRANCH  22  26
ATOM     26  O   UNL d   1     -20.282  25.529  20.834  0.00  0.00    -0.307 OA
ATOM     27  H   UNL d   1     -20.084  26.280  20.244  0.00  0.00     0.222 HD
ENDBRANCH  22  26
ENDBRANCH  21  22
ENDBRANCH  20  21
ENDBRANCH   2  20
TORSDOF 13
ENDMDL
MODEL 5
REMARK VINA RESULT:      -7.3      2.154      4.482
REMARK  13 active torsions:
REMARK  status: ('A' for Active; 'I' for Inactive)
REMARK    1  A    between atoms: C_2  and  O_1 
REMARK    2  A    between atoms: C_3  and  C_5 
REMARK    3  A    between atoms: C_4  and  O_7 
REMARK    4  A    between atoms: C_5  and  O_9 
REMARK    5  A    between atoms: C_8  and  C_11 
REMARK    6  A    between atoms: C_8  and  O_10 
REMARK    7  A    between atoms: O_9  and  P_12 
REMARK    8  A    between atoms: C_11  and  O_13 
REMARK    9  A    between atoms: P_12  and  O_15 
REMARK   10  A    between atoms: P_12  and  O_16 
REMARK   11  A    between atoms: O_13  and  P_17 
REMARK   12  A    between atoms: P_17  and  O_19 
REMARK   13  A    between atoms: P_17  and  O_20 
ROOT
ATOM      1  C   UNL d   1     -22.965  25.625  21.834  0.00  0.00     0.183 C 
ATOM      2  C   UNL d   1     -23.918  25.679  20.640  0.00  0.00     0.181 C 
ATOM      3  C   UNL d   1     -21.644  25.136  21.243  0.00  0.00     0.213 C 
ATOM      4  O   UNL d   1     -23.468  24.670  19.718  0.00  0.00    -0.341 OA
ATOM      5  C   UNL d   1     -22.073  24.434  19.921  0.00  0.00     0.213 C 
ENDROOT
BRANCH   5   6
ATOM      6  C   UNL d   1     -21.346  24.885  18.655  0.00  0.00     0.251 C 
BRANCH   6   7
ATOM      7  O   UNL d   1     -22.244  25.044  17.570  0.00  0.00    -0.292 OA
BRANCH   7   8
ATOM      8  P   UNL d   1     -21.975  26.262  16.574  0.00  0.00     0.390 P 
ATOM      9  O   UNL d   1     -20.854  27.174  16.918  0.00  0.00    -0.632 OA
BRANCH   8  10
ATOM     10  O   UNL d   1     -21.789  25.558  15.152  0.00  0.00    -0.307 OA
ATOM     11  H   UNL d   1     -22.330  24.751  15.123  0.00  0.00     0.222 HD
ENDBRANCH   8  10
BRANCH   8  12
ATOM     12  O   UNL d   1     -23.393  26.964  16.450  0.00  0.00    -0.307 OA
ATOM     13  H   UNL d   1     -23.828  27.045  17.311  0.00  0.00     0.222 HD
ENDBRANCH   8  12
ENDBRANCH   7   8
ENDBRANCH   6   7
ENDBRANCH   5   6
BRANCH   5  14
ATOM     14  O   UNL d   1     -21.914  23.025  20.042  0.00  0.00    -0.362 OA
ATOM     15  H   UNL d   1     -22.710  22.707  20.498  0.00  0.00     0.213 HD
ENDBRANCH   5  14
BRANCH   3  16
ATOM     16  O   UNL d   1     -20.730  26.232  21.152  0.00  0.00    -0.387 OA
ATOM     17  H   UNL d   1     -20.071  26.096  20.455  0.00  0.00     0.210 HD
ENDBRANCH   3  16
BRANCH   1  18
ATOM     18  O   UNL d   1     -23.441  24.662  22.782  0.00  0.00    -0.390 OA
ATOM     19  H   UNL d   1     -23.519  23.810  22.316  0.00  0.00     0.210 HD
ENDBRANCH   1  18
BRANCH   2  20
ATOM     20  C   UNL d   1     -23.913  27.038  19.926  0.00  0.00     0.215 C 
BRANCH  20  21
ATOM     21  O   UNL d   1     -23.329  28.018  20.783  0.00  0.00    -0.294 OA
BRANCH  21  22
ATOM     22  P   UNL d   1     -22.737  29.410  19.944  0.00  0.00     0.390 P 
ATOM     23  O   UNL d   1     -22.208  30.655  19.191  0.00  0.00    -0.632 OA
BRANCH  22  24
ATOM     24  O   UNL d   1     -21.439  28.517  19.518  0.00  0.00    -0.307 OA
ATOM     25  H   UNL d   1     -21.431  28.503  18.539  0.00  0.00     0.222 HD
ENDBRANCH  22  24
BRANCH  22  26
ATOM     26  O   UNL d   1     -23.673  28.904  18.701  0.00  0.00    -0.307 OA
ATOM     27  H   UNL d   1     -23.870  27.961  18.849  0.00  0.00     0.222 HD
ENDBRANCH  22  26
ENDBRANCH  21  22
ENDBRANCH  20  21
ENDBRANCH   2  20
TORSDOF 13
ENDMDL
MODEL 6
REMARK VINA RESULT:      -7.3     50.683     52.307
REMARK  13 active torsions:
REMARK  status: ('A' for Active; 'I' for Inactive)
REMARK    1  A    between atoms: C_2  and  O_1 
REMARK    2  A    between atoms: C_3  and  C_5 
REMARK    3  A    between atoms: C_4  and  O_7 
REMARK    4  A    between atoms: C_5  and  O_9 
REMARK    5  A    between atoms: C_8  and  C_11 
REMARK    6  A    between atoms: C_8  and  O_10 
REMARK    7  A    between atoms: O_9  and  P_12 
REMARK    8  A    between atoms: C_11  and  O_13 
REMARK    9  A    between atoms: P_12  and  O_15 
REMARK   10  A    between atoms: P_12  and  O_16 
REMARK   11  A    between atoms: O_13  and  P_17 
REMARK   12  A    between atoms: P_17  and  O_19 
REMARK   13  A    between atoms: P_17  and  O_20 
ROOT
ATOM      1  C   UNL d   1      18.226  -5.513  11.694  0.00  0.00     0.183 C 
ATOM      2  C   UNL d   1      16.977  -5.519  12.574  0.00  0.00     0.181 C 
ATOM      3  C   UNL d   1      18.516  -4.033  11.457  0.00  0.00     0.213 C 
ATOM      4  O   UNL d   1      16.242  -4.327  12.241  0.00  0.00    -0.341 OA
ATOM      5  C   UNL d   1      17.146  -3.344  11.732  0.00  0.00     0.213 C 
ENDROOT
BRANCH   5   6
ATOM      6  C   UNL d   1      17.165  -2.184  12.725  0.00  0.00     0.251 C 
BRANCH   6   7
ATOM      7  O   UNL d   1      18.145  -1.220  12.378  0.00  0.00    -0.292 OA
BRANCH   7   8
ATOM      8  P   UNL d   1      19.081  -0.677  13.552  0.00  0.00     0.390 P 
ATOM      9  O   UNL d   1      19.529  -1.667  14.565  0.00  0.00    -0.632 OA
BRANCH   8  10
ATOM     10  O   UNL d   1      20.296   0.017  12.782  0.00  0.00    -0.307 OA
ATOM     11  H   UNL d   1      19.944   0.677  12.160  0.00  0.00     0.222 HD
ENDBRANCH   8  10
BRANCH   8  12
ATOM     12  O   UNL d   1      18.270   0.555  14.137  0.00  0.00    -0.307 OA
ATOM     13  H   UNL d   1      17.333   0.341  14.261  0.00  0.00     0.222 HD
ENDBRANCH   8  12
ENDBRANCH   7   8
ENDBRANCH   6   7
ENDBRANCH   5   6
BRANCH   5  14
ATOM     14  O   UNL d   1      16.584  -2.871  10.513  0.00  0.00    -0.362 OA
ATOM     15  H   UNL d   1      16.205  -2.001  10.716  0.00  0.00     0.213 HD
ENDBRANCH   5  14
BRANCH   3  16
ATOM     16  O   UNL d   1      19.635  -3.634  12.251  0.00  0.00    -0.387 OA
ATOM     17  H   UNL d   1      20.249  -3.072  11.755  0.00  0.00     0.210 HD
ENDBRANCH   3  16
BRANCH   1  18
ATOM     18  O   UNL d   1      17.932  -6.142  10.441  0.00  0.00    -0.390 OA
ATOM     19  H   UNL d   1      17.567  -5.457   9.851  0.00  0.00     0.210 HD
ENDBRANCH   1  18
BRANCH   2  20
ATOM     20  C   UNL d   1      17.296  -5.500  14.075  0.00  0.00     0.215 C 
BRANCH  20  21
ATOM     21  O   UNL d   1      18.642  -5.929  14.276  0.00  0.00    -0.294 OA
BRANCH  21  22
ATOM     22  P   UNL d   1      18.803  -7.179  15.461  0.00  0.00     0.390 P 
ATOM     23  O   UNL d   1      18.946  -8.299  16.520  0.00  0.00    -0.632 OA
BRANCH  22  24
ATOM     24  O   UNL d   1      17.267  -6.855  15.912  0.00  0.00    -0.307 OA
ATOM     25  H   UNL d   1      16.697  -7.209  15.200  0.00  0.00     0.222 HD
ENDBRANCH  22  24
BRANCH  22  26
ATOM     26  O   UNL d   1      18.384  -8.203  14.256  0.00  0.00    -0.307 OA
ATOM     27  H   UNL d   1      17.494  -7.946  13.951  0.00  0.00     0.222 HD
ENDBRANCH  22  26
ENDBRANCH  21  22
ENDBRANCH  20  21
ENDBRANCH   2  20
TORSDOF 13
ENDMDL
MODEL 7
REMARK VINA RESULT:      -7.3      1.924      2.411
REMARK  13 active torsions:
REMARK  status: ('A' for Active; 'I' for Inactive)
REMARK    1  A    between atoms: C_2  and  O_1 
REMARK    2  A    between atoms: C_3  and  C_5 
REMARK    3  A    between atoms: C_4  and  O_7 
REMARK    4  A    between atoms: C_5  and  O_9 
REMARK    5  A    between atoms: C_8  and  C_11 
REMARK    6  A    between atoms: C_8  and  O_10 
REMARK    7  A    between atoms: O_9  and  P_12 
REMARK    8  A    between atoms: C_11  and  O_13 
REMARK    9  A    between atoms: P_12  and  O_15 
REMARK   10  A    between atoms: P_12  and  O_16 
REMARK   11  A    between atoms: O_13  and  P_17 
REMARK   12  A    between atoms: P_17  and  O_19 
REMARK   13  A    between atoms: P_17  and  O_20 
ROOT
ATOM      1  C   UNL d   1     -26.595  25.337  19.382  0.00  0.00     0.183 C 
ATOM      2  C   UNL d   1     -25.197  24.783  19.114  0.00  0.00     0.181 C 
ATOM      3  C   UNL d   1     -26.565  25.751  20.852  0.00  0.00     0.213 C 
ATOM      4  O   UNL d   1     -24.729  24.246  20.366  0.00  0.00    -0.341 OA
ATOM      5  C   UNL d   1     -25.390  24.916  21.442  0.00  0.00     0.213 C 
ENDROOT
BRANCH   5   6
ATOM      6  C   UNL d   1     -24.329  25.700  22.211  0.00  0.00     0.251 C 
BRANCH   6   7
ATOM      7  O   UNL d   1     -24.811  26.121  23.476  0.00  0.00    -0.292 OA
BRANCH   7   8
ATOM      8  P   UNL d   1     -24.233  25.371  24.762  0.00  0.00     0.390 P 
ATOM      9  O   UNL d   1     -23.456  26.192  25.725  0.00  0.00    -0.632 OA
BRANCH   8  10
ATOM     10  O   UNL d   1     -25.523  24.695  25.421  0.00  0.00    -0.307 OA
ATOM     11  H   UNL d   1     -25.681  25.096  26.293  0.00  0.00     0.222 HD
ENDBRANCH   8  10
BRANCH   8  12
ATOM     12  O   UNL d   1     -23.447  24.134  24.152  0.00  0.00    -0.307 OA
ATOM     13  H   UNL d   1     -24.019  23.588  23.593  0.00  0.00     0.222 HD
ENDBRANCH   8  12
ENDBRANCH   7   8
ENDBRANCH   6   7
ENDBRANCH   5   6
BRANCH   5  14
ATOM     14  O   UNL d   1     -25.895  23.899  22.300  0.00  0.00    -0.362 OA
ATOM     15  H   UNL d   1     -25.343  23.117  22.139  0.00  0.00     0.213 HD
ENDBRANCH   5  14
BRANCH   3  16
ATOM     16  O   UNL d   1     -26.485  27.175  20.944  0.00  0.00    -0.387 OA
ATOM     17  H   UNL d   1     -27.296  27.560  21.306  0.00  0.00     0.210 HD
ENDBRANCH   3  16
BRANCH   1  18
ATOM     18  O   UNL d   1     -27.564  24.297  19.206  0.00  0.00    -0.390 OA
ATOM     19  H   UNL d   1     -27.599  23.789  20.037  0.00  0.00     0.210 HD
ENDBRANCH   1  18
BRANCH   2  20
ATOM     20  C   UNL d   1     -24.206  25.851  18.634  0.00  0.00     0.215 C 
BRANCH  20  21
ATOM     21  O   UNL d   1     -23.702  25.483  17.351  0.00  0.00    -0.294 OA
BRANCH  21  22
ATOM     22  P   UNL d   1     -22.266  26.335  16.898  0.00  0.00     0.390 P 
ATOM     23  O   UNL d   1     -20.982  27.098  16.491  0.00  0.00    -0.632 OA
BRANCH  22  24
ATOM     24  O   UNL d   1     -21.995  25.157  15.800  0.00  0.00    -0.307 OA
ATOM     25  H   UNL d   1     -21.699  24.376  16.310  0.00  0.00     0.222 HD
ENDBRANCH  22  24
BRANCH  22  26
ATOM     26  O   UNL d   1     -23.244  27.214  15.925  0.00  0.00    -0.307 OA
ATOM     27  H   UNL d   1     -24.086  27.345  16.399  0.00  0.00     0.222 HD
ENDBRANCH  22  26
ENDBRANCH  21  22
ENDBRANCH  20  21
ENDBRANCH   2  20
TORSDOF 13
ENDMDL
MODEL 8
REMARK VINA RESULT:      -7.2      2.378      5.305
REMARK  13 active torsions:
REMARK  status: ('A' for Active; 'I' for Inactive)
REMARK    1  A    between atoms: C_2  and  O_1 
REMARK    2  A    between atoms: C_3  and  C_5 
REMARK    3  A    between atoms: C_4  and  O_7 
REMARK    4  A    between atoms: C_5  and  O_9 
REMARK    5  A    between atoms: C_8  and  C_11 
REMARK    6  A    between atoms: C_8  and  O_10 
REMARK    7  A    between atoms: O_9  and  P_12 
REMARK    8  A    between atoms: C_11  and  O_13 
REMARK    9  A    between atoms: P_12  and  O_15 
REMARK   10  A    between atoms: P_12  and  O_16 
REMARK   11  A    between atoms: O_13  and  P_17 
REMARK   12  A    between atoms: P_17  and  O_19 
REMARK   13  A    between atoms: P_17  and  O_20 
ROOT
ATOM      1  C   UNL d   1     -21.743  27.305  17.582  0.00  0.00     0.183 C 
ATOM      2  C   UNL d   1     -21.550  26.495  18.863  0.00  0.00     0.181 C 
ATOM      3  C   UNL d   1     -22.988  26.703  16.934  0.00  0.00     0.213 C 
ATOM      4  O   UNL d   1     -22.090  25.187  18.598  0.00  0.00    -0.341 OA
ATOM      5  C   UNL d   1     -23.081  25.285  17.573  0.00  0.00     0.213 C 
ENDROOT
BRANCH   5   6
ATOM      6  C   UNL d   1     -24.424  24.918  18.200  0.00  0.00     0.251 C 
BRANCH   6   7
ATOM      7  O   UNL d   1     -24.870  25.922  19.096  0.00  0.00    -0.292 OA
BRANCH   7   8
ATOM      8  P   UNL d   1     -26.434  26.243  19.111  0.00  0.00     0.390 P 
ATOM      9  O   UNL d   1     -26.921  27.254  18.139  0.00  0.00    -0.632 OA
BRANCH   8  10
ATOM     10  O   UNL d   1     -27.119  24.812  18.915  0.00  0.00    -0.307 OA
ATOM     11  H   UNL d   1     -27.177  24.366  19.777  0.00  0.00     0.222 HD
ENDBRANCH   8  10
BRANCH   8  12
ATOM     12  O   UNL d   1     -26.731  26.581  20.633  0.00  0.00    -0.307 OA
ATOM     13  H   UNL d   1     -27.040  27.493  20.743  0.00  0.00     0.222 HD
ENDBRANCH   8  12
ENDBRANCH   7   8
ENDBRANCH   6   7
ENDBRANCH   5   6
BRANCH   5  14
ATOM     14  O   UNL d   1     -22.760  24.292  16.605  0.00  0.00    -0.362 OA
ATOM     15  H   UNL d   1     -22.437  23.527  17.108  0.00  0.00     0.213 HD
ENDBRANCH   5  14
BRANCH   3  16
ATOM     16  O   UNL d   1     -24.093  27.590  17.114  0.00  0.00    -0.387 OA
ATOM     17  H   UNL d   1     -24.420  27.582  18.026  0.00  0.00     0.210 HD
ENDBRANCH   3  16
BRANCH   1  18
ATOM     18  O   UNL d   1     -20.619  27.106  16.715  0.00  0.00    -0.390 OA
ATOM     19  H   UNL d   1     -20.874  26.430  16.061  0.00  0.00     0.210 HD
ENDBRANCH   1  18
BRANCH   2  20
ATOM     20  C   UNL d   1     -22.280  27.095  20.072  0.00  0.00     0.215 C 
BRANCH  20  21
ATOM     21  O   UNL d   1     -22.638  28.446  19.782  0.00  0.00    -0.294 OA
BRANCH  21  22
ATOM     22  P   UNL d   1     -23.806  29.104  20.876  0.00  0.00     0.390 P 
ATOM     23  O   UNL d   1     -24.852  29.692  21.854  0.00  0.00    -0.632 OA
BRANCH  22  24
ATOM     24  O   UNL d   1     -24.901  28.983  19.670  0.00  0.00    -0.307 OA
ATOM     25  H   UNL d   1     -24.864  28.054  19.365  0.00  0.00     0.222 HD
ENDBRANCH  22  24
BRANCH  22  26
ATOM     26  O   UNL d   1     -23.999  27.567  21.398  0.00  0.00    -0.307 OA
ATOM     27  H   UNL d   1     -24.265  27.608  22.335  0.00  0.00     0.222 HD
ENDBRANCH  22  26
ENDBRANCH  21  22
ENDBRANCH  20  21
ENDBRANCH   2  20
TORSDOF 13
ENDMDL
MODEL 9
REMARK VINA RESULT:      -7.2      2.042      2.630
REMARK  13 active torsions:
REMARK  status: ('A' for Active; 'I' for Inactive)
REMARK    1  A    between atoms: C_2  and  O_1 
REMARK    2  A    between atoms: C_3  and  C_5 
REMARK    3  A    between atoms: C_4  and  O_7 
REMARK    4  A    between atoms: C_5  and  O_9 
REMARK    5  A    between atoms: C_8  and  C_11 
REMARK    6  A    between atoms: C_8  and  O_10 
REMARK    7  A    between atoms: O_9  and  P_12 
REMARK    8  A    between atoms: C_11  and  O_13 
REMARK    9  A    between atoms: P_12  and  O_15 
REMARK   10  A    between atoms: P_12  and  O_16 
REMARK   11  A    between atoms: O_13  and  P_17 
REMARK   12  A    between atoms: P_17  and  O_19 
REMARK   13  A    between atoms: P_17  and  O_20 
ROOT
ATOM      1  C   UNL d   1     -26.001  25.311  18.542  0.00  0.00     0.183 C 
ATOM      2  C   UNL d   1     -24.912  24.765  19.464  0.00  0.00     0.181 C 
ATOM      3  C   UNL d   1     -26.129  26.781  18.935  0.00  0.00     0.213 C 
ATOM      4  O   UNL d   1     -24.976  25.546  20.671  0.00  0.00    -0.341 OA
ATOM      5  C   UNL d   1     -25.536  26.827  20.374  0.00  0.00     0.213 C 
ENDROOT
BRANCH   5   6
ATOM      6  C   UNL d   1     -24.446  27.869  20.618  0.00  0.00     0.251 C 
BRANCH   6   7
ATOM      7  O   UNL d   1     -24.789  29.122  20.052  0.00  0.00    -0.292 OA
BRANCH   7   8
ATOM      8  P   UNL d   1     -23.591  30.040  19.532  0.00  0.00     0.390 P 
ATOM      9  O   UNL d   1     -23.717  31.502  19.763  0.00  0.00    -0.632 OA
BRANCH   8  10
ATOM     10  O   UNL d   1     -22.298  29.411  20.230  0.00  0.00    -0.307 OA
ATOM     11  H   UNL d   1     -21.506  29.874  19.908  0.00  0.00     0.222 HD
ENDBRANCH   8  10
BRANCH   8  12
ATOM     12  O   UNL d   1     -23.427  29.615  18.012  0.00  0.00    -0.307 OA
ATOM     13  H   UNL d   1     -22.496  29.594  17.745  0.00  0.00     0.222 HD
ENDBRANCH   8  12
ENDBRANCH   7   8
ENDBRANCH   6   7
ENDBRANCH   5   6
BRANCH   5  14
ATOM     14  O   UNL d   1     -26.574  27.044  21.324  0.00  0.00    -0.362 OA
ATOM     15  H   UNL d   1     -26.264  26.642  22.151  0.00  0.00     0.213 HD
ENDBRANCH   5  14
BRANCH   3  16
ATOM     16  O   UNL d   1     -25.517  27.597  17.934  0.00  0.00    -0.387 OA
ATOM     17  H   UNL d   1     -24.550  27.532  17.956  0.00  0.00     0.210 HD
ENDBRANCH   3  16
BRANCH   1  18
ATOM     18  O   UNL d   1     -27.238  24.642  18.813  0.00  0.00    -0.390 OA
ATOM     19  H   UNL d   1     -27.878  24.930  18.136  0.00  0.00     0.210 HD
ENDBRANCH   1  18
BRANCH   2  20
ATOM     20  C   UNL d   1     -23.502  24.887  18.871  0.00  0.00     0.215 C 
BRANCH  20  21
ATOM     21  O   UNL d   1     -23.600  25.261  17.497  0.00  0.00    -0.294 OA
BRANCH  21  22
ATOM     22  P   UNL d   1     -22.234  26.153  16.921  0.00  0.00     0.390 P 
ATOM     23  O   UNL d   1     -21.012  26.953  16.407  0.00  0.00    -0.632 OA
BRANCH  22  24
ATOM     24  O   UNL d   1     -23.287  27.135  16.151  0.00  0.00    -0.307 OA
ATOM     25  H   UNL d   1     -24.176  26.883  16.473  0.00  0.00     0.222 HD
ENDBRANCH  22  24
BRANCH  22  26
ATOM     26  O   UNL d   1     -22.312  26.950  18.347  0.00  0.00    -0.307 OA
ATOM     27  H   UNL d   1     -23.226  26.872  18.676  0.00  0.00     0.222 HD
ENDBRANCH  22  26
ENDBRANCH  21  22
ENDBRANCH  20  21
ENDBRANCH   2  20
TORSDOF 13
ENDMDL
