MODEL 1
REMARK VINA RESULT:      -5.2      0.000      0.000
REMARK  6 active torsions:
REMARK  status: ('A' for Active; 'I' for Inactive)
REMARK    1  A    between atoms: N_1  and  C_2 
REMARK    2  A    between atoms: C_3  and  C_2 
REMARK    3  A    between atoms: C_3  and  C_4 
REMARK    4  A    between atoms: C_3  and  O_5 
REMARK    5  A    between atoms: C_9  and  O_11 
REMARK    6  A    between atoms: C_10  and  O_12 
ROOT
ATOM      1  C   UNL d   1     -21.753  17.445  19.154  0.00  0.00    -0.025 A 
ATOM      2  C   UNL d   1     -22.396  16.194  19.167  0.00  0.00     0.012 A 
ATOM      3  C   UNL d   1     -21.986  18.325  20.233  0.00  0.00     0.049 A 
ATOM      4  C   UNL d   1     -23.269  15.840  20.202  0.00  0.00     0.040 A 
ATOM      5  C   UNL d   1     -22.852  17.965  21.258  0.00  0.00     0.099 A 
ATOM      6  C   UNL d   1     -23.500  16.732  21.232  0.00  0.00     0.098 A 
ENDROOT
BRANCH   1   7
ATOM      7  C   UNL d   1     -20.833  17.899  18.029  0.00  0.00     0.179 C 
BRANCH   7   8
ATOM      8  O   UNL d   1     -20.651  19.315  18.147  0.00  0.00    -0.389 OA
ATOM      9  H   UNL d   1     -20.910  19.555  19.054  0.00  0.00     0.210 HD
ENDBRANCH   7   8
BRANCH   7  10
ATOM     10  C   UNL d   1     -19.448  17.200  17.969  0.00  0.00     0.303 C 
BRANCH  10  11
ATOM     11  N   UNL d   1     -18.392  17.948  18.663  0.00  0.00     0.081 N 
ATOM     12  H   UNL d   1     -18.090  18.731  18.086  0.00  0.00     0.312 HD
ATOM     13  H   UNL d   1     -17.583  17.338  18.789  0.00  0.00     0.312 HD
ENDBRANCH  10  11
ENDBRANCH   7  10
ENDBRANCH   1   7
BRANCH   5  14
ATOM     14  O   UNL d   1     -23.105  18.786  22.320  0.00  0.00    -0.358 OA
ATOM     15  H   UNL d   1     -22.315  19.336  22.465  0.00  0.00     0.217 HD
ENDBRANCH   5  14
BRANCH   6  16
ATOM     16  O   UNL d   1     -24.371  16.393  22.228  0.00  0.00    -0.358 OA
ATOM     17  H   UNL d   1     -24.740  15.532  21.946  0.00  0.00     0.217 HD
ENDBRANCH   6  16
TORSDOF 6
ENDMDL
MODEL 2
REMARK VINA RESULT:      -5.2     37.958     39.091
REMARK  6 active torsions:
REMARK  status: ('A' for Active; 'I' for Inactive)
REMARK    1  A    between atoms: N_1  and  C_2 
REMARK    2  A    between atoms: C_3  and  C_2 
REMARK    3  A    between atoms: C_3  and  C_4 
REMARK    4  A    between atoms: C_3  and  O_5 
REMARK    5  A    between atoms: C_9  and  O_11 
REMARK    6  A    between atoms: C_10  and  O_12 
ROOT
ATOM      1  C   UNL d   1       4.174  -9.759  26.237  0.00  0.00    -0.025 A 
ATOM      2  C   UNL d   1       5.179  -9.484  27.183  0.00  0.00     0.012 A 
ATOM      3  C   UNL d   1       4.569 -10.109  24.928  0.00  0.00     0.049 A 
ATOM      4  C   UNL d   1       6.533  -9.523  26.833  0.00  0.00     0.040 A 
ATOM      5  C   UNL d   1       5.916 -10.149  24.589  0.00  0.00     0.099 A 
ATOM      6  C   UNL d   1       6.891  -9.842  25.536  0.00  0.00     0.098 A 
ENDROOT
BRANCH   1   7
ATOM      7  C   UNL d   1       2.687  -9.683  26.554  0.00  0.00     0.179 C 
BRANCH   7   8
ATOM      8  O   UNL d   1       2.020  -9.113  25.421  0.00  0.00    -0.389 OA
ATOM      9  H   UNL d   1       1.076  -9.327  25.515  0.00  0.00     0.210 HD
ENDBRANCH   7   8
BRANCH   7  10
ATOM     10  C   UNL d   1       2.010 -11.027  26.934  0.00  0.00     0.303 C 
BRANCH  10  11
ATOM     11  N   UNL d   1       2.779 -11.805  27.913  0.00  0.00     0.081 N 
ATOM     12  H   UNL d   1       2.352 -12.721  28.036  0.00  0.00     0.312 HD
ATOM     13  H   UNL d   1       2.738 -11.331  28.817  0.00  0.00     0.312 HD
ENDBRANCH  10  11
ENDBRANCH   7  10
ENDBRANCH   1   7
BRANCH   5  14
ATOM     14  O   UNL d   1       6.342 -10.484  23.334  0.00  0.00    -0.358 OA
ATOM     15  H   UNL d   1       6.889  -9.752  23.001  0.00  0.00     0.217 HD
ENDBRANCH   5  14
BRANCH   6  16
ATOM     16  O   UNL d   1       8.212  -9.856  25.191  0.00  0.00    -0.358 OA
ATOM     17  H   UNL d   1       8.361 -10.756  24.836  0.00  0.00     0.217 HD
ENDBRANCH   6  16
TORSDOF 6
ENDMDL
MODEL 3
REMARK VINA RESULT:      -5.1      4.162      6.563
REMARK  6 active torsions:
REMARK  status: ('A' for Active; 'I' for Inactive)
REMARK    1  A    between atoms: N_1  and  C_2 
REMARK    2  A    between atoms: C_3  and  C_2 
REMARK    3  A    between atoms: C_3  and  C_4 
REMARK    4  A    between atoms: C_3  and  O_5 
REMARK    5  A    between atoms: C_9  and  O_11 
REMARK    6  A    between atoms: C_10  and  O_12 
ROOT
ATOM      1  C   UNL d   1     -21.006  15.821  16.473  0.00  0.00    -0.025 A 
ATOM      2  C   UNL d   1     -21.183  17.195  16.226  0.00  0.00     0.012 A 
ATOM      3  C   UNL d   1     -20.491  15.018  15.433  0.00  0.00     0.049 A 
ATOM      4  C   UNL d   1     -20.888  17.749  14.975  0.00  0.00     0.040 A 
ATOM      5  C   UNL d   1     -20.197  15.576  14.195  0.00  0.00     0.099 A 
ATOM      6  C   UNL d   1     -20.410  16.934  13.966  0.00  0.00     0.098 A 
ENDROOT
BRANCH   1   7
ATOM      7  C   UNL d   1     -21.358  15.159  17.798  0.00  0.00     0.179 C 
BRANCH   7   8
ATOM      8  O   UNL d   1     -22.093  16.104  18.586  0.00  0.00    -0.389 OA
ATOM      9  H   UNL d   1     -23.033  15.871  18.497  0.00  0.00     0.210 HD
ENDBRANCH   7   8
BRANCH   7  10
ATOM     10  C   UNL d   1     -22.157  13.833  17.697  0.00  0.00     0.303 C 
BRANCH  10  11
ATOM     11  N   UNL d   1     -22.200  13.086  18.960  0.00  0.00     0.081 N 
ATOM     12  H   UNL d   1     -23.164  13.008  19.280  0.00  0.00     0.312 HD
ATOM     13  H   UNL d   1     -21.688  13.610  19.672  0.00  0.00     0.312 HD
ENDBRANCH  10  11
ENDBRANCH   7  10
ENDBRANCH   1   7
BRANCH   5  14
ATOM     14  O   UNL d   1     -19.695  14.836  13.162  0.00  0.00    -0.358 OA
ATOM     15  H   UNL d   1     -20.445  14.526  12.627  0.00  0.00     0.217 HD
ENDBRANCH   5  14
BRANCH   6  16
ATOM     16  O   UNL d   1     -20.145  17.473  12.740  0.00  0.00    -0.358 OA
ATOM     17  H   UNL d   1     -19.218  17.779  12.804  0.00  0.00     0.217 HD
ENDBRANCH   6  16
TORSDOF 6
ENDMDL
MODEL 4
REMARK VINA RESULT:      -5.0      3.134      5.262
REMARK  6 active torsions:
REMARK  status: ('A' for Active; 'I' for Inactive)
REMARK    1  A    between atoms: N_1  and  C_2 
REMARK    2  A    between atoms: C_3  and  C_2 
REMARK    3  A    between atoms: C_3  and  C_4 
REMARK    4  A    between atoms: C_3  and  O_5 
REMARK    5  A    between atoms: C_9  and  O_11 
REMARK    6  A    between atoms: C_10  and  O_12 
ROOT
ATOM      1  C   UNL d   1     -21.855  15.894  17.810  0.00  0.00    -0.025 A 
ATOM      2  C   UNL d   1     -21.935  14.566  17.353  0.00  0.00     0.012 A 
ATOM      3  C   UNL d   1     -21.096  16.814  17.054  0.00  0.00     0.049 A 
ATOM      4  C   UNL d   1     -21.258  14.154  16.200  0.00  0.00     0.040 A 
ATOM      5  C   UNL d   1     -20.429  16.398  15.908  0.00  0.00     0.099 A 
ATOM      6  C   UNL d   1     -20.499  15.070  15.494  0.00  0.00     0.098 A 
ENDROOT
BRANCH   1   7
ATOM      7  C   UNL d   1     -22.532  16.381  19.083  0.00  0.00     0.179 C 
BRANCH   7   8
ATOM      8  O   UNL d   1     -22.476  15.324  20.049  0.00  0.00    -0.389 OA
ATOM      9  H   UNL d   1     -21.784  14.709  19.750  0.00  0.00     0.210 HD
ENDBRANCH   7   8
BRANCH   7  10
ATOM     10  C   UNL d   1     -21.950  17.681  19.700  0.00  0.00     0.303 C 
BRANCH  10  11
ATOM     11  N   UNL d   1     -21.380  17.481  21.038  0.00  0.00     0.081 N 
ATOM     12  H   UNL d   1     -21.951  16.820  21.560  0.00  0.00     0.312 HD
ATOM     13  H   UNL d   1     -21.407  18.367  21.545  0.00  0.00     0.312 HD
ENDBRANCH  10  11
ENDBRANCH   7  10
ENDBRANCH   1   7
BRANCH   5  14
ATOM     14  O   UNL d   1     -19.685  17.256  15.147  0.00  0.00    -0.358 OA
ATOM     15  H   UNL d   1     -18.751  17.131  15.387  0.00  0.00     0.217 HD
ENDBRANCH   5  14
BRANCH   6  16
ATOM     16  O   UNL d   1     -19.820  14.660  14.382  0.00  0.00    -0.358 OA
ATOM     17  H   UNL d   1     -19.518  15.490  13.963  0.00  0.00     0.217 HD
ENDBRANCH   6  16
TORSDOF 6
ENDMDL
MODEL 5
REMARK VINA RESULT:      -5.0     37.551     38.682
REMARK  6 active torsions:
REMARK  status: ('A' for Active; 'I' for Inactive)
REMARK    1  A    between atoms: N_1  and  C_2 
REMARK    2  A    between atoms: C_3  and  C_2 
REMARK    3  A    between atoms: C_3  and  C_4 
REMARK    4  A    between atoms: C_3  and  O_5 
REMARK    5  A    between atoms: C_9  and  O_11 
REMARK    6  A    between atoms: C_10  and  O_12 
ROOT
ATOM      1  C   UNL d   1       4.110 -10.093  26.647  0.00  0.00    -0.025 A 
ATOM      2  C   UNL d   1       5.290 -10.854  26.725  0.00  0.00     0.012 A 
ATOM      3  C   UNL d   1       4.195  -8.782  26.129  0.00  0.00     0.049 A 
ATOM      4  C   UNL d   1       6.523 -10.321  26.331  0.00  0.00     0.040 A 
ATOM      5  C   UNL d   1       5.422  -8.261  25.736  0.00  0.00     0.099 A 
ATOM      6  C   UNL d   1       6.582  -9.025  25.852  0.00  0.00     0.098 A 
ENDROOT
BRANCH   1   7
ATOM      7  C   UNL d   1       2.753 -10.607  27.108  0.00  0.00     0.179 C 
BRANCH   7   8
ATOM      8  O   UNL d   1       2.975 -11.663  28.051  0.00  0.00    -0.389 OA
ATOM      9  H   UNL d   1       3.372 -12.401  27.556  0.00  0.00     0.210 HD
ENDBRANCH   7   8
BRANCH   7  10
ATOM     10  C   UNL d   1       1.807  -9.545  27.729  0.00  0.00     0.303 C 
BRANCH  10  11
ATOM     11  N   UNL d   1       1.067 -10.042  28.896  0.00  0.00     0.081 N 
ATOM     12  H   UNL d   1       0.318 -10.660  28.590  0.00  0.00     0.312 HD
ATOM     13  H   UNL d   1       0.629  -9.251  29.371  0.00  0.00     0.312 HD
ENDBRANCH  10  11
ENDBRANCH   7  10
ENDBRANCH   1   7
BRANCH   5  14
ATOM     14  O   UNL d   1       5.549  -6.999  25.229  0.00  0.00    -0.358 OA
ATOM     15  H   UNL d   1       5.655  -6.387  25.977  0.00  0.00     0.217 HD
ENDBRANCH   5  14
BRANCH   6  16
ATOM     16  O   UNL d   1       7.789  -8.500  25.490  0.00  0.00    -0.358 OA
ATOM     17  H   UNL d   1       8.027  -8.979  24.671  0.00  0.00     0.217 HD
ENDBRANCH   6  16
TORSDOF 6
ENDMDL
MODEL 6
REMARK VINA RESULT:      -5.0     37.235     38.240
REMARK  6 active torsions:
REMARK  status: ('A' for Active; 'I' for Inactive)
REMARK    1  A    between atoms: N_1  and  C_2 
REMARK    2  A    between atoms: C_3  and  C_2 
REMARK    3  A    between atoms: C_3  and  C_4 
REMARK    4  A    between atoms: C_3  and  O_5 
REMARK    5  A    between atoms: C_9  and  O_11 
REMARK    6  A    between atoms: C_10  and  O_12 
ROOT
ATOM      1  C   UNL d   1       4.707  -9.822  25.238  0.00  0.00    -0.025 A 
ATOM      2  C   UNL d   1       4.922  -8.797  26.177  0.00  0.00     0.012 A 
ATOM      3  C   UNL d   1       3.395 -10.320  25.085  0.00  0.00     0.049 A 
ATOM      4  C   UNL d   1       3.875  -8.302  26.962  0.00  0.00     0.040 A 
ATOM      5  C   UNL d   1       2.359  -9.822  25.866  0.00  0.00     0.099 A 
ATOM      6  C   UNL d   1       2.605  -8.827  26.810  0.00  0.00     0.098 A 
ENDROOT
BRANCH   1   7
ATOM      7  C   UNL d   1       5.820 -10.429  24.394  0.00  0.00     0.179 C 
BRANCH   7   8
ATOM      8  O   UNL d   1       6.398  -9.384  23.603  0.00  0.00    -0.389 OA
ATOM      9  H   UNL d   1       6.508  -9.741  22.705  0.00  0.00     0.210 HD
ENDBRANCH   7   8
BRANCH   7  10
ATOM     10  C   UNL d   1       6.937 -11.164  25.182  0.00  0.00     0.303 C 
BRANCH  10  11
ATOM     11  N   UNL d   1       8.160 -10.365  25.332  0.00  0.00     0.081 N 
ATOM     12  H   UNL d   1       7.930  -9.454  25.724  0.00  0.00     0.312 HD
ATOM     13  H   UNL d   1       8.563 -10.202  24.408  0.00  0.00     0.312 HD
ENDBRANCH  10  11
ENDBRANCH   7  10
ENDBRANCH   1   7
BRANCH   5  14
ATOM     14  O   UNL d   1       1.075 -10.274  25.748  0.00  0.00    -0.358 OA
ATOM     15  H   UNL d   1       1.094 -11.080  25.204  0.00  0.00     0.217 HD
ENDBRANCH   5  14
BRANCH   6  16
ATOM     16  O   UNL d   1       1.590  -8.359  27.594  0.00  0.00    -0.358 OA
ATOM     17  H   UNL d   1       2.041  -7.869  28.310  0.00  0.00     0.217 HD
ENDBRANCH   6  16
TORSDOF 6
ENDMDL
MODEL 7
REMARK VINA RESULT:      -4.9     13.914     15.605
REMARK  6 active torsions:
REMARK  status: ('A' for Active; 'I' for Inactive)
REMARK    1  A    between atoms: N_1  and  C_2 
REMARK    2  A    between atoms: C_3  and  C_2 
REMARK    3  A    between atoms: C_3  and  C_4 
REMARK    4  A    between atoms: C_3  and  O_5 
REMARK    5  A    between atoms: C_9  and  O_11 
REMARK    6  A    between atoms: C_10  and  O_12 
ROOT
ATOM      1  C   UNL d   1     -26.584   4.010  25.623  0.00  0.00    -0.025 A 
ATOM      2  C   UNL d   1     -26.210   5.211  24.993  0.00  0.00     0.012 A 
ATOM      3  C   UNL d   1     -27.837   3.962  26.273  0.00  0.00     0.049 A 
ATOM      4  C   UNL d   1     -27.037   6.339  25.034  0.00  0.00     0.040 A 
ATOM      5  C   UNL d   1     -28.654   5.085  26.307  0.00  0.00     0.099 A 
ATOM      6  C   UNL d   1     -28.246   6.272  25.701  0.00  0.00     0.098 A 
ENDROOT
BRANCH   1   7
ATOM      7  C   UNL d   1     -25.701   2.771  25.650  0.00  0.00     0.179 C 
BRANCH   7   8
ATOM      8  O   UNL d   1     -26.540   1.632  25.878  0.00  0.00    -0.389 OA
ATOM      9  H   UNL d   1     -27.453   1.963  25.928  0.00  0.00     0.210 HD
ENDBRANCH   7   8
BRANCH   7  10
ATOM     10  C   UNL d   1     -24.836   2.534  24.384  0.00  0.00     0.303 C 
BRANCH  10  11
ATOM     11  N   UNL d   1     -24.763   1.122  23.988  0.00  0.00     0.081 N 
ATOM     12  H   UNL d   1     -25.565   0.887  23.406  0.00  0.00     0.312 HD
ATOM     13  H   UNL d   1     -24.819   0.541  24.826  0.00  0.00     0.312 HD
ENDBRANCH  10  11
ENDBRANCH   7  10
ENDBRANCH   1   7
BRANCH   5  14
ATOM     14  O   UNL d   1     -29.873   5.080  26.924  0.00  0.00    -0.358 OA
ATOM     15  H   UNL d   1     -30.248   4.188  26.833  0.00  0.00     0.217 HD
ENDBRANCH   5  14
BRANCH   6  16
ATOM     16  O   UNL d   1     -29.041   7.381  25.760  0.00  0.00    -0.358 OA
ATOM     17  H   UNL d   1     -28.661   7.913  26.487  0.00  0.00     0.217 HD
ENDBRANCH   6  16
TORSDOF 6
ENDMDL
MODEL 8
REMARK VINA RESULT:      -4.9     27.138     28.073
REMARK  6 active torsions:
REMARK  status: ('A' for Active; 'I' for Inactive)
REMARK    1  A    between atoms: N_1  and  C_2 
REMARK    2  A    between atoms: C_3  and  C_2 
REMARK    3  A    between atoms: C_3  and  C_4 
REMARK    4  A    between atoms: C_3  and  O_5 
REMARK    5  A    between atoms: C_9  and  O_11 
REMARK    6  A    between atoms: C_10  and  O_12 
ROOT
ATOM      1  C   UNL d   1      -4.052  -2.694  26.156  0.00  0.00    -0.025 A 
ATOM      2  C   UNL d   1      -3.642  -2.735  24.811  0.00  0.00     0.012 A 
ATOM      3  C   UNL d   1      -4.797  -3.783  26.659  0.00  0.00     0.049 A 
ATOM      4  C   UNL d   1      -3.989  -3.806  23.981  0.00  0.00     0.040 A 
ATOM      5  C   UNL d   1      -5.133  -4.846  25.829  0.00  0.00     0.099 A 
ATOM      6  C   UNL d   1      -4.742  -4.847  24.492  0.00  0.00     0.098 A 
ENDROOT
BRANCH   1   7
ATOM      7  C   UNL d   1      -3.744  -1.530  27.087  0.00  0.00     0.179 C 
BRANCH   7   8
ATOM      8  O   UNL d   1      -4.736  -0.518  26.876  0.00  0.00    -0.389 OA
ATOM      9  H   UNL d   1      -5.069  -0.637  25.970  0.00  0.00     0.210 HD
ENDBRANCH   7   8
BRANCH   7  10
ATOM     10  C   UNL d   1      -3.671  -1.878  28.598  0.00  0.00     0.303 C 
BRANCH  10  11
ATOM     11  N   UNL d   1      -4.844  -1.425  29.354  0.00  0.00     0.081 N 
ATOM     12  H   UNL d   1      -5.360  -0.737  28.808  0.00  0.00     0.312 HD
ATOM     13  H   UNL d   1      -4.529  -0.957  30.206  0.00  0.00     0.312 HD
ENDBRANCH  10  11
ENDBRANCH   7  10
ENDBRANCH   1   7
BRANCH   5  14
ATOM     14  O   UNL d   1      -5.851  -5.919  26.275  0.00  0.00    -0.358 OA
ATOM     15  H   UNL d   1      -6.727  -5.597  26.549  0.00  0.00     0.217 HD
ENDBRANCH   5  14
BRANCH   6  16
ATOM     16  O   UNL d   1      -5.098  -5.880  23.673  0.00  0.00    -0.358 OA
ATOM     17  H   UNL d   1      -4.505  -5.793  22.900  0.00  0.00     0.217 HD
ENDBRANCH   6  16
TORSDOF 6
ENDMDL
MODEL 9
REMARK VINA RESULT:      -4.8     20.124     21.376
REMARK  6 active torsions:
REMARK  status: ('A' for Active; 'I' for Inactive)
REMARK    1  A    between atoms: N_1  and  C_2 
REMARK    2  A    between atoms: C_3  and  C_2 
REMARK    3  A    between atoms: C_3  and  C_4 
REMARK    4  A    between atoms: C_3  and  O_5 
REMARK    5  A    between atoms: C_9  and  O_11 
REMARK    6  A    between atoms: C_10  and  O_12 
ROOT
ATOM      1  C   UNL d   1     -13.963   4.464   4.706  0.00  0.00    -0.025 A 
ATOM      2  C   UNL d   1     -12.664   4.453   4.166  0.00  0.00     0.012 A 
ATOM      3  C   UNL d   1     -14.108   4.722   6.087  0.00  0.00     0.049 A 
ATOM      4  C   UNL d   1     -11.541   4.660   4.975  0.00  0.00     0.040 A 
ATOM      5  C   UNL d   1     -12.989   4.930   6.883  0.00  0.00     0.099 A 
ATOM      6  C   UNL d   1     -11.711   4.883   6.329  0.00  0.00     0.098 A 
ENDROOT
BRANCH   1   7
ATOM      7  C   UNL d   1     -15.213   4.196   3.880  0.00  0.00     0.179 C 
BRANCH   7   8
ATOM      8  O   UNL d   1     -15.608   2.837   4.099  0.00  0.00    -0.389 OA
ATOM      9  H   UNL d   1     -15.476   2.368   3.257  0.00  0.00     0.210 HD
ENDBRANCH   7   8
BRANCH   7  10
ATOM     10  C   UNL d   1     -16.415   5.139   4.154  0.00  0.00     0.303 C 
BRANCH  10  11
ATOM     11  N   UNL d   1     -17.620   4.425   4.595  0.00  0.00     0.081 N 
ATOM     12  H   UNL d   1     -17.363   3.691   5.252  0.00  0.00     0.312 HD
ATOM     13  H   UNL d   1     -18.049   3.970   3.788  0.00  0.00     0.312 HD
ENDBRANCH  10  11
ENDBRANCH   7  10
ENDBRANCH   1   7
BRANCH   5  14
ATOM     14  O   UNL d   1     -13.085   5.184   8.222  0.00  0.00    -0.358 OA
ATOM     15  H   UNL d   1     -12.844   6.115   8.366  0.00  0.00     0.217 HD
ENDBRANCH   5  14
BRANCH   6  16
ATOM     16  O   UNL d   1     -10.613   5.061   7.121  0.00  0.00    -0.358 OA
ATOM     17  H   UNL d   1      -9.861   4.783   6.560  0.00  0.00     0.217 HD
ENDBRANCH   6  16
TORSDOF 6
ENDMDL
