MODEL 1
REMARK VINA RESULT:      -6.4      0.000      0.000
REMARK WARNING: 32 MAX_TORS EXCEEDED!!!
REMARK  41 active torsions:
REMARK  status: ('A' for Active; 'I' for Inactive)
REMARK    1  A    between atoms: CB_3  and  CG1_2 
REMARK    2  A    between atoms: CA_4  and  CB_3 
REMARK    3  A    between atoms: CA_4  and  C_6 
REMARK    4  A    between atoms: CA_4  and  N_7 
REMARK       I    between atoms: C_6  and  N_8 
REMARK       I    between atoms: N_7  and  C_10 
REMARK    5  A    between atoms: N_8  and  CA_11 
REMARK    6  A    between atoms: CA_12  and  C_10 
REMARK    7  A    between atoms: CA_11  and  CB_15 
REMARK    8  A    between atoms: CA_11  and  C_14 
REMARK    9  A    between atoms: CA_12  and  N_17 
REMARK   10  A    between atoms: CA_12  and  CB_16 
REMARK       I    between atoms: C_14  and  N_18 
REMARK   11  A    between atoms: CB_15  and  CG_20 
REMARK   12  A    between atoms: CB_16  and  CG_21 
REMARK       I    between atoms: N_17  and  C_22 
REMARK   13  A    between atoms: C_22  and  CA_29 
REMARK   14  A    between atoms: CA_24  and  C_33 
REMARK   15  A    between atoms: CA_29  and  N_39 
REMARK   16  A    between atoms: CA_29  and  CB_38 
REMARK       I    between atoms: C_33  and  N_40 
REMARK       I    between atoms: N_39  and  C_45 
REMARK   17  A    between atoms: N_40  and  CA_46 
REMARK   18  A    between atoms: CZ_42  and  OH_47 
REMARK   19  A    between atoms: CA_48  and  C_45 
REMARK   20  A    between atoms: CA_46  and  CB_51 
REMARK   21  A    between atoms: CA_46  and  C_50 
REMARK   22  A    between atoms: CA_48  and  N_52 
REMARK   23  A    between atoms: CA_48  and  CB_53 
REMARK       I    between atoms: C_50  and  N_54 
REMARK   24  A    between atoms: CB_51  and  CG_56 
REMARK       I    between atoms: N_52  and  C_57 
REMARK   25  A    between atoms: CB_53  and  CG_58 
REMARK   26  A    between atoms: N_54  and  CA_59 
REMARK   27  A    between atoms: C_57  and  CA_62 
REMARK   28  A    between atoms: CG_58  and  CD_64 
REMARK   29  A    between atoms: CA_59  and  CB_66 
REMARK   30  A    between atoms: CA_59  and  C_65 
REMARK   31  A    between atoms: CA_62  and  N_70 
REMARK   32  A    between atoms: CA_62  and  CB_69 
REMARK   33  A    between atoms: CD_64  and  NE_71 
REMARK       I    between atoms: C_65  and  N_72 
REMARK   34  A    between atoms: CB_66  and  CG_74 
REMARK   35  A    between atoms: CB_69  and  CG_76 
REMARK   36  A    between atoms: N_72  and  CA_78 
REMARK   37  A    between atoms: CG_76  and  OD1_82 
REMARK       I    between atoms: CZ_77  and  NH1_83 
REMARK       I    between atoms: CZ_77  and  NH2_84 
REMARK   38  A    between atoms: CA_78  and  CB_86 
REMARK   39  A    between atoms: CA_78  and  C_85 
REMARK   40  A    between atoms: C_85  and  O_90 
REMARK   41  A    between atoms: CB_86  and  CG_91 
ROOT
ATOM      1  CA  ILE d   5      32.910   9.070  15.453  0.00  0.00     0.180 C 
ENDROOT
BRANCH   1   2
ATOM      2  C   ILE d   5      31.493   8.414  15.324  0.00  0.00     0.241 C 
ATOM      3  O   ILE d   5      31.129   7.527  16.093  0.00  0.00    -0.271 OA
ATOM      4  N   HIS d   6      30.746   8.796  14.237  0.00  0.00    -0.346 N 
ATOM      5  H   HIS d   6      31.061   9.579  13.693  0.00  0.00     0.163 HD
BRANCH   4   6
ATOM      6  CA  HIS d   6      29.293   8.623  14.085  0.00  0.00     0.182 C 
BRANCH   6   7
ATOM      7  CB  HIS d   6      28.766  10.112  14.176  0.00  0.00     0.087 C 
BRANCH   7   8
ATOM      8  CG  HIS d   6      29.348  11.235  13.391  0.00  0.00     0.010 C 
ATOM      9  CD2 HIS d   6      28.952  12.546  13.182  0.00  0.00     0.136 C 
ATOM     10  NE2 HIS d   6      29.935  13.227  12.509  0.00  0.00    -0.260 NA
ATOM     11  CE1 HIS d   6      30.888  12.346  12.331  0.00  0.00     0.180 C 
ATOM     12  ND1 HIS d   6      30.342  11.090  12.431  0.00  0.00    -0.256 NA
ATOM     13  HD1 HIS d   6      30.092  10.655  11.558  0.00  0.00     0.134 HD
ENDBRANCH   7   8
ENDBRANCH   6   7
BRANCH   6  14
ATOM     14  C   HIS d   6      29.129   7.937  12.643  0.00  0.00     0.243 C 
ATOM     15  O   HIS d   6      28.712   8.627  11.701  0.00  0.00    -0.271 OA
ATOM     16  N   PRO d   7      29.466   6.579  12.398  0.00  0.00    -0.337 N 
ATOM     17  CD  PRO d   7      30.574   5.890  13.061  0.00  0.00     0.127 C 
ATOM     18  CA  PRO d   7      29.389   6.059  10.980  0.00  0.00     0.179 C 
ATOM     19  CG  PRO d   7      31.577   5.610  11.938  0.00  0.00     0.022 C 
ATOM     20  CB  PRO d   7      30.887   6.030  10.639  0.00  0.00     0.037 C 
BRANCH  18  21
ATOM     21  C   PRO d   7      28.824   4.583  10.788  0.00  0.00     0.241 C 
ATOM     22  O   PRO d   7      29.043   3.966   9.738  0.00  0.00    -0.271 OA
ATOM     23  N   PHE d   8      28.112   3.856  11.727  0.00  0.00    -0.346 N 
ATOM     24  H   PHE d   8      27.864   2.992  11.258  0.00  0.00     0.163 HD
BRANCH  23  25
ATOM     25  CA  PHE d   8      27.185   4.208  12.854  0.00  0.00     0.180 C 
BRANCH  25  26
ATOM     26  CB  PHE d   8      25.873   4.952  12.343  0.00  0.00     0.073 C 
BRANCH  26  27
ATOM     27  CG  PHE d   8      25.597   6.451  12.583  0.00  0.00    -0.056 C 
ATOM     28  CD1 PHE d   8      25.694   7.002  13.861  0.00  0.00     0.007 C 
ATOM     29  CE1 PHE d   8      25.522   8.387  14.081  0.00  0.00     0.001 C 
ATOM     30  CZ  PHE d   8      25.173   9.248  13.039  0.00  0.00     0.000 C 
ATOM     31  CE2 PHE d   8      25.102   8.742  11.761  0.00  0.00     0.001 C 
ATOM     32  CD2 PHE d   8      25.399   7.396  11.551  0.00  0.00     0.007 C 
ENDBRANCH  26  27
ENDBRANCH  25  26
BRANCH  25  33
ATOM     33  C   PHE d   8      26.903   2.992  13.738  0.00  0.00     0.241 C 
ATOM     34  O   PHE d   8      27.326   2.965  14.884  0.00  0.00    -0.271 OA
ATOM     35  N   HIS d   9      26.253   1.882  13.303  0.00  0.00    -0.346 N 
ATOM     36  H   HIS d   9      26.156   1.287  14.111  0.00  0.00     0.163 HD
BRANCH  35  37
ATOM     37  CA  HIS d   9      25.399   1.573  12.140  0.00  0.00     0.182 C 
BRANCH  37  38
ATOM     38  CB  HIS d   9      25.942   1.397  10.698  0.00  0.00     0.093 C 
BRANCH  38  39
ATOM     39  CG  HIS d   9      25.442   2.354   9.704  0.00  0.00     0.030 C 
ATOM     40  CD2 HIS d   9      25.920   2.670   8.467  0.00  0.00     0.143 C 
ATOM     41  NE2 HIS d   9      25.048   3.474   7.792  0.00  0.00    -0.254 NA
ATOM     42  CE1 HIS d   9      24.089   3.727   8.648  0.00  0.00     0.207 C 
ATOM     43  ND1 HIS d   9      24.377   3.202   9.876  0.00  0.00    -0.353 N 
ATOM     44  HD1 HIS d   9      23.875   3.396  10.732  0.00  0.00     0.166 HD
ENDBRANCH  38  39
ENDBRANCH  37  38
BRANCH  37  45
ATOM     45  C   HIS d   9      24.074   0.763  12.373  0.00  0.00     0.241 C 
ATOM     46  O   HIS d   9      23.596   0.081  11.460  0.00  0.00    -0.271 OA
ATOM     47  N   LEU d  10      23.317   0.813  13.513  0.00  0.00    -0.345 N 
ATOM     48  H   LEU d  10      22.488   0.251  13.334  0.00  0.00     0.163 HD
BRANCH  47  49
ATOM     49  CA  LEU d  10      23.725   0.647  14.926  0.00  0.00     0.182 C 
BRANCH  49  50
ATOM     50  CB  LEU d  10      23.831   1.970  15.670  0.00  0.00     0.040 C 
BRANCH  50  51
ATOM     51  CG  LEU d  10      22.730   2.953  15.362  0.00  0.00    -0.020 C 
ATOM     52  CD1 LEU d  10      21.862   3.078  16.600  0.00  0.00     0.009 C 
ATOM     53  CD2 LEU d  10      23.333   4.234  14.816  0.00  0.00     0.009 C 
ENDBRANCH  50  51
ENDBRANCH  49  50
BRANCH  49  54
ATOM     54  C   LEU d  10      22.866  -0.457  15.592  0.00  0.00     0.163 C 
ATOM     55  OXT LEU d  10      21.950  -1.071  15.045  0.00  0.00    -0.648 OA
BRANCH  54  56
ATOM     56  O   LEU d  10      23.227  -0.698  16.868  0.00  0.00    -0.775 OA
ATOM     57  H   LEU d  10      23.895  -1.409  16.906  0.00  0.00     0.167 HD
ENDBRANCH  54  56
ENDBRANCH  49  54
ENDBRANCH  47  49
ENDBRANCH  37  45
ENDBRANCH  35  37
ENDBRANCH  25  33
ENDBRANCH  23  25
ENDBRANCH  18  21
ENDBRANCH   6  14
ENDBRANCH   4   6
ENDBRANCH   1   2
BRANCH   1  58
ATOM     58  N   ILE d   5      33.872   7.949  15.501  0.00  0.00    -0.346 N 
ATOM     59  C   TYR d   4      34.360   7.394  16.670  0.00  0.00     0.241 C 
ATOM     60  O   TYR d   4      34.114   7.896  17.764  0.00  0.00    -0.271 OA
ATOM     61  H   ILE d   5      33.799   7.306  14.717  0.00  0.00     0.163 HD
BRANCH  59  62
ATOM     62  CA  TYR d   4      35.252   6.104  16.530  0.00  0.00     0.180 C 
BRANCH  62  63
ATOM     63  N   TYR d   4      36.566   6.424  15.869  0.00  0.00    -0.346 N 
ATOM     64  C   VAL d   3      37.052   5.612  14.846  0.00  0.00     0.241 C 
ATOM     65  O   VAL d   3      36.359   4.668  14.481  0.00  0.00    -0.271 OA
ATOM     66  H   TYR d   4      37.280   6.803  16.477  0.00  0.00     0.163 HD
BRANCH  64  67
ATOM     67  CA  VAL d   3      38.499   5.912  14.236  0.00  0.00     0.180 C 
BRANCH  67  68
ATOM     68  N   VAL d   3      38.712   6.282  12.781  0.00  0.00    -0.346 N 
ATOM     69  C   ARG d   2      38.706   5.728  11.537  0.00  0.00     0.241 C 
ATOM     70  O   ARG d   2      39.250   6.426  10.668  0.00  0.00    -0.271 OA
ATOM     71  H   VAL d   3      39.320   7.096  12.674  0.00  0.00     0.163 HD
BRANCH  69  72
ATOM     72  CA  ARG d   2      37.894   4.478  11.181  0.00  0.00     0.176 C 
BRANCH  72  73
ATOM     73  N   ARG d   2      38.029   3.479  12.248  0.00  0.00    -0.346 N 
ATOM     74  C   ASP d   1      38.457   2.193  12.027  0.00  0.00     0.252 C 
ATOM     75  O   ASP d   1      38.537   1.677  10.910  0.00  0.00    -0.271 OA
ATOM     76  H   ARG d   2      38.288   3.876  13.148  0.00  0.00     0.163 HD
BRANCH  74  77
ATOM     77  CA  ASP d   1      38.785   1.376  13.306  0.00  0.00     0.318 C 
BRANCH  77  78
ATOM     78  N   ASP d   1      38.222   2.115  14.471  0.00  0.00     0.092 N 
ATOM     79  H1  ASP d   1      38.913   2.168  15.218  0.00  0.00     0.313 HD
ATOM     80  H2  ASP d   1      37.472   1.528  14.864  0.00  0.00     0.313 HD
ENDBRANCH  77  78
BRANCH  77  81
ATOM     81  CB  ASP d   1      38.169  -0.024  13.214  0.00  0.00     0.155 C 
BRANCH  81  82
ATOM     82  CG  ASP d   1      37.480  -0.411  14.491  0.00  0.00     0.141 C 
ATOM     83  OD2 ASP d   1      36.278  -0.494  14.677  0.00  0.00    -0.650 OA
BRANCH  82  84
ATOM     84  OD1 ASP d   1      38.353  -0.758  15.456  0.00  0.00    -0.776 OA
ATOM     85  HD1 ASP d   1      37.840  -1.315  16.075  0.00  0.00     0.167 HD
ENDBRANCH  82  84
ENDBRANCH  81  82
ENDBRANCH  77  81
ENDBRANCH  74  77
ENDBRANCH  72  73
BRANCH  72  86
ATOM     86  CB  ARG d   2      36.525   4.792  10.544  0.00  0.00     0.037 C 
BRANCH  86  87
ATOM     87  CG  ARG d   2      35.708   3.724   9.800  0.00  0.00     0.024 C 
BRANCH  87  88
ATOM     88  CD  ARG d   2      34.537   3.116  10.564  0.00  0.00     0.152 C 
BRANCH  88  89
ATOM     89  NE  ARG d   2      34.826   3.107  11.988  0.00  0.00    -0.268 NA
ATOM     90  CZ  ARG d   2      34.828   2.059  12.691  0.00  0.00     0.143 C 
ATOM     91  NH1 ARG d   2      35.078   2.175  14.005  0.00  0.00    -0.278 NA
ATOM     92  NH2 ARG d   2      34.574   0.773  12.345  0.00  0.00    -0.278 NA
ATOM     93 1HH1 ARG d   2      35.470   3.107  14.205  0.00  0.00     0.126 HD
ATOM     94 2HH1 ARG d   2      35.560   1.423  14.463  0.00  0.00     0.126 HD
ATOM     95 1HH2 ARG d   2      34.599   0.578  11.349  0.00  0.00     0.126 HD
ATOM     96 2HH2 ARG d   2      35.074   0.064  12.882  0.00  0.00     0.126 HD
ENDBRANCH  88  89
ENDBRANCH  87  88
ENDBRANCH  86  87
ENDBRANCH  72  86
ENDBRANCH  69  72
ENDBRANCH  67  68
BRANCH  67  97
ATOM     97  CB  VAL d   3      39.180   7.111  14.990  0.00  0.00     0.009 C 
ATOM     98  CG1 VAL d   3      38.503   8.442  14.630  0.00  0.00     0.012 C 
ATOM     99  CG2 VAL d   3      39.343   6.964  16.500  0.00  0.00     0.012 C 
ENDBRANCH  67  97
ENDBRANCH  64  67
ENDBRANCH  62  63
BRANCH  62 100
ATOM    100  CB  TYR d   4      35.468   5.367  17.893  0.00  0.00     0.073 C 
BRANCH 100 101
ATOM    101  CG  TYR d   4      35.680   3.857  17.881  0.00  0.00    -0.056 A 
ATOM    102  CD1 TYR d   4      34.618   2.967  17.642  0.00  0.00     0.010 A 
ATOM    103  CE1 TYR d   4      34.831   1.583  17.572  0.00  0.00     0.037 A 
ATOM    104  CZ  TYR d   4      36.100   1.063  17.757  0.00  0.00     0.065 A 
ATOM    105  CE2 TYR d   4      37.173   1.911  17.971  0.00  0.00     0.037 A 
ATOM    106  CD2 TYR d   4      36.953   3.294  18.004  0.00  0.00     0.010 A 
BRANCH 104 107
ATOM    107  OH  TYR d   4      36.286  -0.281  17.699  0.00  0.00    -0.361 OA
ATOM    108  HH  TYR d   4      35.469  -0.684  18.046  0.00  0.00     0.217 HD
ENDBRANCH 104 107
ENDBRANCH 100 101
ENDBRANCH  62 100
ENDBRANCH  59  62
ENDBRANCH   1  58
BRANCH   1 109
ATOM    109  CB  ILE d   5      33.186  10.267  14.461  0.00  0.00     0.013 C 
ATOM    110  CG2 ILE d   5      33.205  11.654  15.118  0.00  0.00     0.012 C 
BRANCH 109 111
ATOM    111  CG1 ILE d   5      34.452   9.986  13.603  0.00  0.00     0.002 C 
ATOM    112  CD1 ILE d   5      35.699  10.786  13.960  0.00  0.00     0.005 C 
ENDBRANCH 109 111
ENDBRANCH   1 109
TORSDOF 41
ENDMDL
MODEL 2
REMARK VINA RESULT:      -6.3      7.182     16.402
REMARK WARNING: 32 MAX_TORS EXCEEDED!!!
REMARK  41 active torsions:
REMARK  status: ('A' for Active; 'I' for Inactive)
REMARK    1  A    between atoms: CB_3  and  CG1_2 
REMARK    2  A    between atoms: CA_4  and  CB_3 
REMARK    3  A    between atoms: CA_4  and  C_6 
REMARK    4  A    between atoms: CA_4  and  N_7 
REMARK       I    between atoms: C_6  and  N_8 
REMARK       I    between atoms: N_7  and  C_10 
REMARK    5  A    between atoms: N_8  and  CA_11 
REMARK    6  A    between atoms: CA_12  and  C_10 
REMARK    7  A    between atoms: CA_11  and  CB_15 
REMARK    8  A    between atoms: CA_11  and  C_14 
REMARK    9  A    between atoms: CA_12  and  N_17 
REMARK   10  A    between atoms: CA_12  and  CB_16 
REMARK       I    between atoms: C_14  and  N_18 
REMARK   11  A    between atoms: CB_15  and  CG_20 
REMARK   12  A    between atoms: CB_16  and  CG_21 
REMARK       I    between atoms: N_17  and  C_22 
REMARK   13  A    between atoms: C_22  and  CA_29 
REMARK   14  A    between atoms: CA_24  and  C_33 
REMARK   15  A    between atoms: CA_29  and  N_39 
REMARK   16  A    between atoms: CA_29  and  CB_38 
REMARK       I    between atoms: C_33  and  N_40 
REMARK       I    between atoms: N_39  and  C_45 
REMARK   17  A    between atoms: N_40  and  CA_46 
REMARK   18  A    between atoms: CZ_42  and  OH_47 
REMARK   19  A    between atoms: CA_48  and  C_45 
REMARK   20  A    between atoms: CA_46  and  CB_51 
REMARK   21  A    between atoms: CA_46  and  C_50 
REMARK   22  A    between atoms: CA_48  and  N_52 
REMARK   23  A    between atoms: CA_48  and  CB_53 
REMARK       I    between atoms: C_50  and  N_54 
REMARK   24  A    between atoms: CB_51  and  CG_56 
REMARK       I    between atoms: N_52  and  C_57 
REMARK   25  A    between atoms: CB_53  and  CG_58 
REMARK   26  A    between atoms: N_54  and  CA_59 
REMARK   27  A    between atoms: C_57  and  CA_62 
REMARK   28  A    between atoms: CG_58  and  CD_64 
REMARK   29  A    between atoms: CA_59  and  CB_66 
REMARK   30  A    between atoms: CA_59  and  C_65 
REMARK   31  A    between atoms: CA_62  and  N_70 
REMARK   32  A    between atoms: CA_62  and  CB_69 
REMARK   33  A    between atoms: CD_64  and  NE_71 
REMARK       I    between atoms: C_65  and  N_72 
REMARK   34  A    between atoms: CB_66  and  CG_74 
REMARK   35  A    between atoms: CB_69  and  CG_76 
REMARK   36  A    between atoms: N_72  and  CA_78 
REMARK   37  A    between atoms: CG_76  and  OD1_82 
REMARK       I    between atoms: CZ_77  and  NH1_83 
REMARK       I    between atoms: CZ_77  and  NH2_84 
REMARK   38  A    between atoms: CA_78  and  CB_86 
REMARK   39  A    between atoms: CA_78  and  C_85 
REMARK   40  A    between atoms: C_85  and  O_90 
REMARK   41  A    between atoms: CB_86  and  CG_91 
ROOT
ATOM      1  CA  ILE d   5      18.126   4.972  10.800  0.00  0.00     0.180 C 
ENDROOT
BRANCH   1   2
ATOM      2  C   ILE d   5      19.450   4.430  11.438  0.00  0.00     0.241 C 
ATOM      3  O   ILE d   5      19.465   3.962  12.575  0.00  0.00    -0.271 OA
ATOM      4  N   HIS d   6      20.597   4.623  10.709  0.00  0.00    -0.346 N 
ATOM      5  H   HIS d   6      20.511   4.935   9.758  0.00  0.00     0.163 HD
BRANCH   4   6
ATOM      6  CA  HIS d   6      21.870   3.909  10.895  0.00  0.00     0.182 C 
BRANCH   6   7
ATOM      7  CB  HIS d   6      21.824   2.832   9.737  0.00  0.00     0.087 C 
BRANCH   7   8
ATOM      8  CG  HIS d   6      20.998   1.596   9.802  0.00  0.00     0.010 C 
ATOM      9  CD2 HIS d   6      20.461   0.766   8.832  0.00  0.00     0.136 C 
ATOM     10  NE2 HIS d   6      19.917  -0.347   9.420  0.00  0.00    -0.260 NA
ATOM     11  CE1 HIS d   6      20.131  -0.185  10.702  0.00  0.00     0.180 C 
ATOM     12  ND1 HIS d   6      20.337   1.152  10.942  0.00  0.00    -0.256 NA
ATOM     13  HD1 HIS d   6      19.528   1.668  11.247  0.00  0.00     0.134 HD
ENDBRANCH   7   8
ENDBRANCH   6   7
BRANCH   6  14
ATOM     14  C   HIS d   6      22.987   5.047  10.714  0.00  0.00     0.243 C 
ATOM     15  O   HIS d   6      23.193   5.501   9.579  0.00  0.00    -0.271 OA
ATOM     16  N   PRO d   7      23.731   5.571  11.805  0.00  0.00    -0.337 N 
ATOM     17  CD  PRO d   7      23.179   5.743  13.150  0.00  0.00     0.127 C 
ATOM     18  CA  PRO d   7      24.675   6.724  11.549  0.00  0.00     0.179 C 
ATOM     19  CG  PRO d   7      23.142   7.260  13.356  0.00  0.00     0.022 C 
ATOM     20  CB  PRO d   7      23.842   7.871  12.140  0.00  0.00     0.037 C 
BRANCH  18  21
ATOM     21  C   PRO d   7      26.068   6.694  12.320  0.00  0.00     0.241 C 
ATOM     22  O   PRO d   7      26.600   7.751  12.684  0.00  0.00    -0.271 OA
ATOM     23  N   PHE d   8      26.771   5.558  12.686  0.00  0.00    -0.346 N 
ATOM     24  H   PHE d   8      27.629   5.903  13.102  0.00  0.00     0.163 HD
BRANCH  23  25
ATOM     25  CA  PHE d   8      26.896   4.169  12.131  0.00  0.00     0.180 C 
BRANCH  25  26
ATOM     26  CB  PHE d   8      28.343   3.892  11.525  0.00  0.00     0.073 C 
BRANCH  26  27
ATOM     27  CG  PHE d   8      28.705   4.125  10.044  0.00  0.00    -0.056 C 
ATOM     28  CD1 PHE d   8      28.139   5.180   9.326  0.00  0.00     0.007 C 
ATOM     29  CE1 PHE d   8      28.522   5.452   7.994  0.00  0.00     0.001 C 
ATOM     30  CZ  PHE d   8      29.426   4.630   7.317  0.00  0.00     0.000 C 
ATOM     31  CE2 PHE d   8      30.026   3.601   8.008  0.00  0.00     0.001 C 
ATOM     32  CD2 PHE d   8      29.725   3.430   9.358  0.00  0.00     0.007 C 
ENDBRANCH  26  27
ENDBRANCH  25  26
BRANCH  25  33
ATOM     33  C   PHE d   8      26.440   3.124  13.150  0.00  0.00     0.241 C 
ATOM     34  O   PHE d   8      26.588   3.337  14.343  0.00  0.00    -0.271 OA
ATOM     35  N   HIS d   9      25.927   1.915  12.807  0.00  0.00    -0.346 N 
ATOM     36  H   HIS d   9      25.658   1.475  13.673  0.00  0.00     0.163 HD
BRANCH  35  37
ATOM     37  CA  HIS d   9      25.369   1.342  11.566  0.00  0.00     0.182 C 
BRANCH  37  38
ATOM     38  CB  HIS d   9      26.230   0.957  10.334  0.00  0.00     0.093 C 
BRANCH  38  39
ATOM     39  CG  HIS d   9      26.097   1.832   9.163  0.00  0.00     0.030 C 
ATOM     40  CD2 HIS d   9      26.722   1.782   7.952  0.00  0.00     0.143 C 
ATOM     41  NE2 HIS d   9      26.170   2.671   7.076  0.00  0.00    -0.254 NA
ATOM     42  CE1 HIS d   9      25.279   3.328   7.777  0.00  0.00     0.207 C 
ATOM     43  ND1 HIS d   9      25.323   2.962   9.092  0.00  0.00    -0.353 N 
ATOM     44  HD1 HIS d   9      24.850   3.434   9.851  0.00  0.00     0.166 HD
ENDBRANCH  38  39
ENDBRANCH  37  38
BRANCH  37  45
ATOM     45  C   HIS d   9      24.055   0.487  11.656  0.00  0.00     0.241 C 
ATOM     46  O   HIS d   9      23.775  -0.316  10.759  0.00  0.00    -0.271 OA
ATOM     47  N   LEU d  10      23.104   0.616  12.632  0.00  0.00    -0.345 N 
ATOM     48  H   LEU d  10      22.342  -0.009  12.377  0.00  0.00     0.163 HD
BRANCH  47  49
ATOM     49  CA  LEU d  10      23.255   0.626  14.104  0.00  0.00     0.182 C 
BRANCH  49  50
ATOM     50  CB  LEU d  10      22.929   1.978  14.722  0.00  0.00     0.040 C 
BRANCH  50  51
ATOM     51  CG  LEU d  10      23.519   2.202  16.091  0.00  0.00    -0.020 C 
ATOM     52  CD1 LEU d  10      24.868   1.510  16.133  0.00  0.00     0.009 C 
ATOM     53  CD2 LEU d  10      23.501   3.685  16.414  0.00  0.00     0.009 C 
ENDBRANCH  50  51
ENDBRANCH  49  50
BRANCH  49  54
ATOM     54  C   LEU d  10      22.540  -0.606  14.712  0.00  0.00     0.163 C 
ATOM     55  OXT LEU d  10      22.407  -0.828  15.915  0.00  0.00    -0.648 OA
BRANCH  54  56
ATOM     56  O   LEU d  10      22.055  -1.442  13.772  0.00  0.00    -0.775 OA
ATOM     57  H   LEU d  10      21.950  -2.342  14.137  0.00  0.00     0.167 HD
ENDBRANCH  54  56
ENDBRANCH  49  54
ENDBRANCH  47  49
ENDBRANCH  37  45
ENDBRANCH  35  37
ENDBRANCH  25  33
ENDBRANCH  23  25
ENDBRANCH  18  21
ENDBRANCH   6  14
ENDBRANCH   4   6
ENDBRANCH   1   2
BRANCH   1  58
ATOM     58  N   ILE d   5      17.366   5.589  11.909  0.00  0.00    -0.346 N 
ATOM     59  C   TYR d   4      16.165   5.102  12.392  0.00  0.00     0.241 C 
ATOM     60  O   TYR d   4      15.581   4.178  11.831  0.00  0.00    -0.271 OA
ATOM     61  H   ILE d   5      17.946   6.064  12.595  0.00  0.00     0.163 HD
BRANCH  59  62
ATOM     62  CA  TYR d   4      15.581   5.795  13.679  0.00  0.00     0.180 C 
BRANCH  62  63
ATOM     63  N   TYR d   4      16.684   6.311  14.564  0.00  0.00    -0.346 N 
ATOM     64  C   VAL d   3      17.123   5.557  15.650  0.00  0.00     0.241 C 
ATOM     65  O   VAL d   3      16.616   4.454  15.828  0.00  0.00    -0.271 OA
ATOM     66  H   TYR d   4      16.685   7.311  14.721  0.00  0.00     0.163 HD
BRANCH  64  67
ATOM     67  CA  VAL d   3      18.219   6.176  16.634  0.00  0.00     0.180 C 
BRANCH  67  68
ATOM     68  N   VAL d   3      17.965   6.382  18.115  0.00  0.00    -0.346 N 
ATOM     69  C   ARG d   2      17.249   7.167  18.967  0.00  0.00     0.241 C 
ATOM     70  O   ARG d   2      17.631   7.117  20.146  0.00  0.00    -0.271 OA
ATOM     71  H   VAL d   3      18.748   6.063  18.689  0.00  0.00     0.163 HD
BRANCH  69  72
ATOM     72  CA  ARG d   2      15.942   7.860  18.567  0.00  0.00     0.176 C 
BRANCH  72  73
ATOM     73  N   ARG d   2      16.229   8.962  17.641  0.00  0.00    -0.346 N 
ATOM     74  C   ASP d   1      15.870  10.265  17.886  0.00  0.00     0.252 C 
ATOM     75  O   ASP d   1      15.075  10.606  18.767  0.00  0.00    -0.271 OA
ATOM     76  H   ARG d   2      17.090   8.840  17.115  0.00  0.00     0.163 HD
BRANCH  74  77
ATOM     77  CA  ASP d   1      16.489  11.315  16.925  0.00  0.00     0.318 C 
BRANCH  77  78
ATOM     78  N   ASP d   1      16.459  10.741  15.550  0.00  0.00     0.092 N 
ATOM     79  H1  ASP d   1      16.312  11.481  14.865  0.00  0.00     0.313 HD
ATOM     80  H2  ASP d   1      15.607  10.165  15.484  0.00  0.00     0.313 HD
ENDBRANCH  77  78
BRANCH  77  81
ATOM     81  CB  ASP d   1      15.688  12.620  16.975  0.00  0.00     0.155 C 
BRANCH  81  82
ATOM     82  CG  ASP d   1      16.057  13.541  15.847  0.00  0.00     0.141 C 
ATOM     83  OD2 ASP d   1      17.045  13.467  15.138  0.00  0.00    -0.650 OA
BRANCH  82  84
ATOM     84  OD1 ASP d   1      15.108  14.469  15.616  0.00  0.00    -0.776 OA
ATOM     85  HD1 ASP d   1      14.269  14.047  15.890  0.00  0.00     0.167 HD
ENDBRANCH  82  84
ENDBRANCH  81  82
ENDBRANCH  77  81
ENDBRANCH  74  77
ENDBRANCH  72  73
BRANCH  72  86
ATOM     86  CB  ARG d   2      14.778   6.881  18.313  0.00  0.00     0.037 C 
BRANCH  86  87
ATOM     87  CG  ARG d   2      13.353   7.159  18.820  0.00  0.00     0.024 C 
BRANCH  87  88
ATOM     88  CD  ARG d   2      12.411   5.962  18.878  0.00  0.00     0.152 C 
BRANCH  88  89
ATOM     89  NE  ARG d   2      11.160   6.347  19.509  0.00  0.00    -0.268 NA
ATOM     90  CZ  ARG d   2      10.846   6.023  20.687  0.00  0.00     0.143 C 
ATOM     91  NH1 ARG d   2       9.647   6.409  21.155  0.00  0.00    -0.278 NA
ATOM     92  NH2 ARG d   2      11.523   5.286  21.602  0.00  0.00    -0.278 NA
ATOM     93 1HH1 ARG d   2       9.248   7.131  20.538  0.00  0.00     0.126 HD
ATOM     94 2HH1 ARG d   2       9.567   6.618  22.134  0.00  0.00     0.126 HD
ATOM     95 1HH2 ARG d   2      12.510   5.154  21.408  0.00  0.00     0.126 HD
ATOM     96 2HH2 ARG d   2      11.359   5.534  22.578  0.00  0.00     0.126 HD
ENDBRANCH  88  89
ENDBRANCH  87  88
ENDBRANCH  86  87
ENDBRANCH  72  86
ENDBRANCH  69  72
ENDBRANCH  67  68
BRANCH  67  97
ATOM     97  CB  VAL d   3      19.522   5.296  16.637  0.00  0.00     0.009 C 
ATOM     98  CG1 VAL d   3      20.444   5.678  15.469  0.00  0.00     0.012 C 
ATOM     99  CG2 VAL d   3      20.294   5.225  17.951  0.00  0.00     0.012 C 
ENDBRANCH  67  97
ENDBRANCH  64  67
ENDBRANCH  62  63
BRANCH  62 100
ATOM    100  CB  TYR d   4      14.548   6.921  13.345  0.00  0.00     0.073 C 
BRANCH 100 101
ATOM    101  CG  TYR d   4      13.288   7.034  14.198  0.00  0.00    -0.056 A 
ATOM    102  CD1 TYR d   4      12.553   5.896  14.576  0.00  0.00     0.010 A 
ATOM    103  CE1 TYR d   4      11.430   6.001  15.410  0.00  0.00     0.037 A 
ATOM    104  CZ  TYR d   4      11.013   7.240  15.864  0.00  0.00     0.065 A 
ATOM    105  CE2 TYR d   4      11.727   8.378  15.531  0.00  0.00     0.037 A 
ATOM    106  CD2 TYR d   4      12.866   8.257  14.725  0.00  0.00     0.010 A 
BRANCH 104 107
ATOM    107  OH  TYR d   4       9.916   7.324  16.660  0.00  0.00    -0.361 OA
ATOM    108  HH  TYR d   4      10.222   7.144  17.567  0.00  0.00     0.217 HD
ENDBRANCH 104 107
ENDBRANCH 100 101
ENDBRANCH  62 100
ENDBRANCH  59  62
ENDBRANCH   1  58
BRANCH   1 109
ATOM    109  CB  ILE d   5      18.313   5.787   9.461  0.00  0.00     0.013 C 
ATOM    110  CG2 ILE d   5      17.422   5.325   8.299  0.00  0.00     0.012 C 
BRANCH 109 111
ATOM    111  CG1 ILE d   5      18.211   7.315   9.731  0.00  0.00     0.002 C 
ATOM    112  CD1 ILE d   5      19.515   8.030  10.059  0.00  0.00     0.005 C 
ENDBRANCH 109 111
ENDBRANCH   1 109
TORSDOF 41
ENDMDL
MODEL 3
REMARK VINA RESULT:      -6.2      2.789      6.417
REMARK WARNING: 32 MAX_TORS EXCEEDED!!!
REMARK  41 active torsions:
REMARK  status: ('A' for Active; 'I' for Inactive)
REMARK    1  A    between atoms: CB_3  and  CG1_2 
REMARK    2  A    between atoms: CA_4  and  CB_3 
REMARK    3  A    between atoms: CA_4  and  C_6 
REMARK    4  A    between atoms: CA_4  and  N_7 
REMARK       I    between atoms: C_6  and  N_8 
REMARK       I    between atoms: N_7  and  C_10 
REMARK    5  A    between atoms: N_8  and  CA_11 
REMARK    6  A    between atoms: CA_12  and  C_10 
REMARK    7  A    between atoms: CA_11  and  CB_15 
REMARK    8  A    between atoms: CA_11  and  C_14 
REMARK    9  A    between atoms: CA_12  and  N_17 
REMARK   10  A    between atoms: CA_12  and  CB_16 
REMARK       I    between atoms: C_14  and  N_18 
REMARK   11  A    between atoms: CB_15  and  CG_20 
REMARK   12  A    between atoms: CB_16  and  CG_21 
REMARK       I    between atoms: N_17  and  C_22 
REMARK   13  A    between atoms: C_22  and  CA_29 
REMARK   14  A    between atoms: CA_24  and  C_33 
REMARK   15  A    between atoms: CA_29  and  N_39 
REMARK   16  A    between atoms: CA_29  and  CB_38 
REMARK       I    between atoms: C_33  and  N_40 
REMARK       I    between atoms: N_39  and  C_45 
REMARK   17  A    between atoms: N_40  and  CA_46 
REMARK   18  A    between atoms: CZ_42  and  OH_47 
REMARK   19  A    between atoms: CA_48  and  C_45 
REMARK   20  A    between atoms: CA_46  and  CB_51 
REMARK   21  A    between atoms: CA_46  and  C_50 
REMARK   22  A    between atoms: CA_48  and  N_52 
REMARK   23  A    between atoms: CA_48  and  CB_53 
REMARK       I    between atoms: C_50  and  N_54 
REMARK   24  A    between atoms: CB_51  and  CG_56 
REMARK       I    between atoms: N_52  and  C_57 
REMARK   25  A    between atoms: CB_53  and  CG_58 
REMARK   26  A    between atoms: N_54  and  CA_59 
REMARK   27  A    between atoms: C_57  and  CA_62 
REMARK   28  A    between atoms: CG_58  and  CD_64 
REMARK   29  A    between atoms: CA_59  and  CB_66 
REMARK   30  A    between atoms: CA_59  and  C_65 
REMARK   31  A    between atoms: CA_62  and  N_70 
REMARK   32  A    between atoms: CA_62  and  CB_69 
REMARK   33  A    between atoms: CD_64  and  NE_71 
REMARK       I    between atoms: C_65  and  N_72 
REMARK   34  A    between atoms: CB_66  and  CG_74 
REMARK   35  A    between atoms: CB_69  and  CG_76 
REMARK   36  A    between atoms: N_72  and  CA_78 
REMARK   37  A    between atoms: CG_76  and  OD1_82 
REMARK       I    between atoms: CZ_77  and  NH1_83 
REMARK       I    between atoms: CZ_77  and  NH2_84 
REMARK   38  A    between atoms: CA_78  and  CB_86 
REMARK   39  A    between atoms: CA_78  and  C_85 
REMARK   40  A    between atoms: C_85  and  O_90 
REMARK   41  A    between atoms: CB_86  and  CG_91 
ROOT
ATOM      1  CA  ILE d   5      32.954   9.748  15.116  0.00  0.00     0.180 C 
ENDROOT
BRANCH   1   2
ATOM      2  C   ILE d   5      32.247   9.281  13.799  0.00  0.00     0.241 C 
ATOM      3  O   ILE d   5      32.712   9.554  12.694  0.00  0.00    -0.271 OA
ATOM      4  N   HIS d   6      31.027   8.667  13.951  0.00  0.00    -0.346 N 
ATOM      5  H   HIS d   6      30.740   8.400  14.875  0.00  0.00     0.163 HD
BRANCH   4   6
ATOM      6  CA  HIS d   6      30.351   7.831  12.947  0.00  0.00     0.182 C 
BRANCH   6   7
ATOM      7  CB  HIS d   6      30.851   6.379  13.328  0.00  0.00     0.087 C 
BRANCH   7   8
ATOM      8  CG  HIS d   6      32.115   5.788  12.811  0.00  0.00     0.010 C 
ATOM      9  CD2 HIS d   6      33.309   5.432  13.418  0.00  0.00     0.136 C 
ATOM     10  NE2 HIS d   6      34.105   4.763  12.522  0.00  0.00    -0.260 NA
ATOM     11  CE1 HIS d   6      33.400   4.719  11.419  0.00  0.00     0.180 C 
ATOM     12  ND1 HIS d   6      32.457   5.716  11.466  0.00  0.00    -0.256 NA
ATOM     13  HD1 HIS d   6      32.707   6.572  10.999  0.00  0.00     0.134 HD
ENDBRANCH   7   8
ENDBRANCH   6   7
BRANCH   6  14
ATOM     14  C   HIS d   6      28.790   8.096  13.206  0.00  0.00     0.243 C 
ATOM     15  O   HIS d   6      28.430   8.472  14.330  0.00  0.00    -0.271 OA
ATOM     16  N   PRO d   7      27.807   7.939  12.191  0.00  0.00    -0.337 N 
ATOM     17  CD  PRO d   7      28.051   8.240  10.779  0.00  0.00     0.127 C 
ATOM     18  CA  PRO d   7      26.380   8.327  12.500  0.00  0.00     0.179 C 
ATOM     19  CG  PRO d   7      27.152   9.444  10.485  0.00  0.00     0.022 C 
ATOM     20  CB  PRO d   7      26.310   9.663  11.744  0.00  0.00     0.037 C 
BRANCH  18  21
ATOM     21  C   PRO d   7      25.237   7.384  11.916  0.00  0.00     0.241 C 
ATOM     22  O   PRO d   7      24.383   7.844  11.149  0.00  0.00    -0.271 OA
ATOM     23  N   PHE d   8      25.107   6.025  12.149  0.00  0.00    -0.346 N 
ATOM     24  H   PHE d   8      24.250   5.758  11.677  0.00  0.00     0.163 HD
BRANCH  23  25
ATOM     25  CA  PHE d   8      25.475   5.107  13.278  0.00  0.00     0.180 C 
BRANCH  25  26
ATOM     26  CB  PHE d   8      27.028   4.752  13.283  0.00  0.00     0.073 C 
BRANCH  26  27
ATOM     27  CG  PHE d   8      27.731   3.996  12.137  0.00  0.00    -0.056 C 
ATOM     28  CD1 PHE d   8      27.423   2.662  11.864  0.00  0.00     0.007 C 
ATOM     29  CE1 PHE d   8      28.001   1.982  10.769  0.00  0.00     0.001 C 
ATOM     30  CZ  PHE d   8      28.961   2.595   9.960  0.00  0.00     0.000 C 
ATOM     31  CE2 PHE d   8      29.262   3.920  10.183  0.00  0.00     0.001 C 
ATOM     32  CD2 PHE d   8      28.586   4.605  11.191  0.00  0.00     0.007 C 
ENDBRANCH  26  27
ENDBRANCH  25  26
BRANCH  25  33
ATOM     33  C   PHE d   8      24.957   5.640  14.615  0.00  0.00     0.241 C 
ATOM     34  O   PHE d   8      25.156   6.806  14.920  0.00  0.00    -0.271 OA
ATOM     35  N   HIS d   9      24.333   4.868  15.540  0.00  0.00    -0.346 N 
ATOM     36  H   HIS d   9      24.050   5.496  16.276  0.00  0.00     0.163 HD
BRANCH  35  37
ATOM     37  CA  HIS d   9      23.694   3.538  15.516  0.00  0.00     0.182 C 
BRANCH  37  38
ATOM     38  CB  HIS d   9      22.239   3.292  15.036  0.00  0.00     0.093 C 
BRANCH  38  39
ATOM     39  CG  HIS d   9      21.196   4.043  15.746  0.00  0.00     0.030 C 
ATOM     40  CD2 HIS d   9      20.232   4.879  15.265  0.00  0.00     0.143 C 
ATOM     41  NE2 HIS d   9      19.345   5.221  16.244  0.00  0.00    -0.254 NA
ATOM     42  CE1 HIS d   9      19.819   4.676  17.337  0.00  0.00     0.207 C 
ATOM     43  ND1 HIS d   9      21.032   4.092  17.107  0.00  0.00    -0.353 N 
ATOM     44  HD1 HIS d   9      21.665   3.750  17.817  0.00  0.00     0.166 HD
ENDBRANCH  38  39
ENDBRANCH  37  38
BRANCH  37  45
ATOM     45  C   HIS d   9      24.600   2.270  15.319  0.00  0.00     0.241 C 
ATOM     46  O   HIS d   9      25.604   2.111  16.023  0.00  0.00    -0.271 OA
ATOM     47  N   LEU d  10      24.427   1.329  14.340  0.00  0.00    -0.345 N 
ATOM     48  H   LEU d  10      25.209   0.683  14.419  0.00  0.00     0.163 HD
BRANCH  47  49
ATOM     49  CA  LEU d  10      23.210   0.578  13.957  0.00  0.00     0.182 C 
BRANCH  49  50
ATOM     50  CB  LEU d  10      23.141   0.291  12.465  0.00  0.00     0.040 C 
BRANCH  50  51
ATOM     51  CG  LEU d  10      22.002   0.972  11.747  0.00  0.00    -0.020 C 
ATOM     52  CD1 LEU d  10      22.530   1.480  10.419  0.00  0.00     0.009 C 
ATOM     53  CD2 LEU d  10      20.806   0.039  11.697  0.00  0.00     0.009 C 
ENDBRANCH  50  51
ENDBRANCH  49  50
BRANCH  49  54
ATOM     54  C   LEU d  10      23.021  -0.631  14.907  0.00  0.00     0.163 C 
ATOM     55  OXT LEU d  10      23.901  -1.127  15.609  0.00  0.00    -0.648 OA
BRANCH  54  56
ATOM     56  O   LEU d  10      21.759  -1.106  14.898  0.00  0.00    -0.775 OA
ATOM     57  H   LEU d  10      21.679  -1.853  14.275  0.00  0.00     0.167 HD
ENDBRANCH  54  56
ENDBRANCH  49  54
ENDBRANCH  47  49
ENDBRANCH  37  45
ENDBRANCH  35  37
ENDBRANCH  25  33
ENDBRANCH  23  25
ENDBRANCH  18  21
ENDBRANCH   6  14
ENDBRANCH   4   6
ENDBRANCH   1   2
BRANCH   1  58
ATOM     58  N   ILE d   5      33.947   8.701  15.436  0.00  0.00    -0.346 N 
ATOM     59  C   TYR d   4      33.799   7.774  16.452  0.00  0.00     0.241 C 
ATOM     60  O   TYR d   4      32.868   7.848  17.250  0.00  0.00    -0.271 OA
ATOM     61  H   ILE d   5      34.483   8.379  14.635  0.00  0.00     0.163 HD
BRANCH  59  62
ATOM     62  CA  TYR d   4      34.882   6.635  16.543  0.00  0.00     0.180 C 
BRANCH  62  63
ATOM     63  N   TYR d   4      36.268   7.214  16.644  0.00  0.00    -0.346 N 
ATOM     64  C   VAL d   3      37.081   7.287  15.515  0.00  0.00     0.241 C 
ATOM     65  O   VAL d   3      36.616   6.909  14.445  0.00  0.00    -0.271 OA
ATOM     66  H   TYR d   4      36.762   7.014  17.504  0.00  0.00     0.163 HD
BRANCH  64  67
ATOM     67  CA  VAL d   3      38.585   7.805  15.672  0.00  0.00     0.180 C 
BRANCH  67  68
ATOM     68  N   VAL d   3      38.958   8.974  16.564  0.00  0.00    -0.346 N 
ATOM     69  C   ARG d   2      39.087  10.330  16.532  0.00  0.00     0.241 C 
ATOM     70  O   ARG d   2      39.726  10.801  17.485  0.00  0.00    -0.271 OA
ATOM     71  H   VAL d   3      39.577   8.696  17.326  0.00  0.00     0.163 HD
BRANCH  69  72
ATOM     72  CA  ARG d   2      38.314  11.221  15.554  0.00  0.00     0.176 C 
BRANCH  72  73
ATOM     73  N   ARG d   2      37.400  12.097  16.298  0.00  0.00    -0.346 N 
ATOM     74  C   ASP d   1      36.432  11.626  17.151  0.00  0.00     0.252 C 
ATOM     75  O   ASP d   1      36.069  10.448  17.198  0.00  0.00    -0.271 OA
ATOM     76  H   ARG d   2      37.812  12.989  16.557  0.00  0.00     0.163 HD
BRANCH  74  77
ATOM     77  CA  ASP d   1      35.751  12.703  18.038  0.00  0.00     0.318 C 
BRANCH  77  78
ATOM     78  N   ASP d   1      36.049  12.371  19.460  0.00  0.00     0.092 N 
ATOM     79  H1  ASP d   1      36.345  11.399  19.538  0.00  0.00     0.313 HD
ATOM     80  H2  ASP d   1      35.154  12.404  19.969  0.00  0.00     0.313 HD
ENDBRANCH  77  78
BRANCH  77  81
ATOM     81  CB  ASP d   1      36.290  14.096  17.691  0.00  0.00     0.155 C 
BRANCH  81  82
ATOM     82  CG  ASP d   1      35.499  14.737  16.587  0.00  0.00     0.141 C 
ATOM     83  OD2 ASP d   1      35.747  14.699  15.394  0.00  0.00    -0.650 OA
BRANCH  82  84
ATOM     84  OD1 ASP d   1      34.378  15.330  17.041  0.00  0.00    -0.776 OA
ATOM     85  HD1 ASP d   1      34.269  15.000  17.955  0.00  0.00     0.167 HD
ENDBRANCH  82  84
ENDBRANCH  81  82
ENDBRANCH  77  81
ENDBRANCH  74  77
ENDBRANCH  72  73
BRANCH  72  86
ATOM     86  CB  ARG d   2      39.177  11.760  14.396  0.00  0.00     0.037 C 
BRANCH  86  87
ATOM     87  CG  ARG d   2      38.565  12.516  13.206  0.00  0.00     0.024 C 
BRANCH  87  88
ATOM     88  CD  ARG d   2      37.784  11.677  12.201  0.00  0.00     0.152 C 
BRANCH  88  89
ATOM     89  NE  ARG d   2      38.381  10.357  12.089  0.00  0.00    -0.268 NA
ATOM     90  CZ  ARG d   2      37.716   9.285  12.139  0.00  0.00     0.143 C 
ATOM     91  NH1 ARG d   2      38.379   8.120  12.056  0.00  0.00    -0.278 NA
ATOM     92  NH2 ARG d   2      36.385   9.089  12.308  0.00  0.00    -0.278 NA
ATOM     93 1HH1 ARG d   2      39.339   8.289  11.722  0.00  0.00     0.126 HD
ATOM     94 2HH1 ARG d   2      37.921   7.347  11.610  0.00  0.00     0.126 HD
ATOM     95 1HH2 ARG d   2      35.803   9.906  12.154  0.00  0.00     0.126 HD
ATOM     96 2HH2 ARG d   2      36.000   8.259  11.855  0.00  0.00     0.126 HD
ENDBRANCH  88  89
ENDBRANCH  87  88
ENDBRANCH  86  87
ENDBRANCH  72  86
ENDBRANCH  69  72
ENDBRANCH  67  68
BRANCH  67  97
ATOM     97  CB  VAL d   3      39.512   6.659  16.218  0.00  0.00     0.009 C 
ATOM     98  CG1 VAL d   3      39.549   6.666  17.753  0.00  0.00     0.012 C 
ATOM     99  CG2 VAL d   3      39.251   5.256  15.677  0.00  0.00     0.012 C 
ENDBRANCH  67  97
ENDBRANCH  64  67
ENDBRANCH  62  63
BRANCH  62 100
ATOM    100  CB  TYR d   4      34.603   5.626  17.706  0.00  0.00     0.073 C 
BRANCH 100 101
ATOM    101  CG  TYR d   4      35.166   4.213  17.597  0.00  0.00    -0.056 A 
ATOM    102  CD1 TYR d   4      36.493   3.921  17.960  0.00  0.00     0.010 A 
ATOM    103  CE1 TYR d   4      36.986   2.608  17.914  0.00  0.00     0.037 A 
ATOM    104  CZ  TYR d   4      36.172   1.572  17.491  0.00  0.00     0.065 A 
ATOM    105  CE2 TYR d   4      34.854   1.820  17.148  0.00  0.00     0.037 A 
ATOM    106  CD2 TYR d   4      34.363   3.129  17.230  0.00  0.00     0.010 A 
BRANCH 104 107
ATOM    107  OH  TYR d   4      36.671   0.310  17.440  0.00  0.00    -0.361 OA
ATOM    108  HH  TYR d   4      37.638   0.396  17.515  0.00  0.00     0.217 HD
ENDBRANCH 104 107
ENDBRANCH 100 101
ENDBRANCH  62 100
ENDBRANCH  59  62
ENDBRANCH   1  58
BRANCH   1 109
ATOM    109  CB  ILE d   5      33.411  11.259  15.131  0.00  0.00     0.013 C 
ATOM    110  CG2 ILE d   5      34.538  11.597  14.144  0.00  0.00     0.012 C 
BRANCH 109 111
ATOM    111  CG1 ILE d   5      32.185  12.205  14.995  0.00  0.00     0.002 C 
ATOM    112  CD1 ILE d   5      32.476  13.623  14.523  0.00  0.00     0.005 C 
ENDBRANCH 109 111
ENDBRANCH   1 109
TORSDOF 41
ENDMDL
MODEL 4
REMARK VINA RESULT:      -6.2      2.810      6.004
REMARK WARNING: 32 MAX_TORS EXCEEDED!!!
REMARK  41 active torsions:
REMARK  status: ('A' for Active; 'I' for Inactive)
REMARK    1  A    between atoms: CB_3  and  CG1_2 
REMARK    2  A    between atoms: CA_4  and  CB_3 
REMARK    3  A    between atoms: CA_4  and  C_6 
REMARK    4  A    between atoms: CA_4  and  N_7 
REMARK       I    between atoms: C_6  and  N_8 
REMARK       I    between atoms: N_7  and  C_10 
REMARK    5  A    between atoms: N_8  and  CA_11 
REMARK    6  A    between atoms: CA_12  and  C_10 
REMARK    7  A    between atoms: CA_11  and  CB_15 
REMARK    8  A    between atoms: CA_11  and  C_14 
REMARK    9  A    between atoms: CA_12  and  N_17 
REMARK   10  A    between atoms: CA_12  and  CB_16 
REMARK       I    between atoms: C_14  and  N_18 
REMARK   11  A    between atoms: CB_15  and  CG_20 
REMARK   12  A    between atoms: CB_16  and  CG_21 
REMARK       I    between atoms: N_17  and  C_22 
REMARK   13  A    between atoms: C_22  and  CA_29 
REMARK   14  A    between atoms: CA_24  and  C_33 
REMARK   15  A    between atoms: CA_29  and  N_39 
REMARK   16  A    between atoms: CA_29  and  CB_38 
REMARK       I    between atoms: C_33  and  N_40 
REMARK       I    between atoms: N_39  and  C_45 
REMARK   17  A    between atoms: N_40  and  CA_46 
REMARK   18  A    between atoms: CZ_42  and  OH_47 
REMARK   19  A    between atoms: CA_48  and  C_45 
REMARK   20  A    between atoms: CA_46  and  CB_51 
REMARK   21  A    between atoms: CA_46  and  C_50 
REMARK   22  A    between atoms: CA_48  and  N_52 
REMARK   23  A    between atoms: CA_48  and  CB_53 
REMARK       I    between atoms: C_50  and  N_54 
REMARK   24  A    between atoms: CB_51  and  CG_56 
REMARK       I    between atoms: N_52  and  C_57 
REMARK   25  A    between atoms: CB_53  and  CG_58 
REMARK   26  A    between atoms: N_54  and  CA_59 
REMARK   27  A    between atoms: C_57  and  CA_62 
REMARK   28  A    between atoms: CG_58  and  CD_64 
REMARK   29  A    between atoms: CA_59  and  CB_66 
REMARK   30  A    between atoms: CA_59  and  C_65 
REMARK   31  A    between atoms: CA_62  and  N_70 
REMARK   32  A    between atoms: CA_62  and  CB_69 
REMARK   33  A    between atoms: CD_64  and  NE_71 
REMARK       I    between atoms: C_65  and  N_72 
REMARK   34  A    between atoms: CB_66  and  CG_74 
REMARK   35  A    between atoms: CB_69  and  CG_76 
REMARK   36  A    between atoms: N_72  and  CA_78 
REMARK   37  A    between atoms: CG_76  and  OD1_82 
REMARK       I    between atoms: CZ_77  and  NH1_83 
REMARK       I    between atoms: CZ_77  and  NH2_84 
REMARK   38  A    between atoms: CA_78  and  CB_86 
REMARK   39  A    between atoms: CA_78  and  C_85 
REMARK   40  A    between atoms: C_85  and  O_90 
REMARK   41  A    between atoms: CB_86  and  CG_91 
ROOT
ATOM      1  CA  ILE d   5      31.462   8.385  14.272  0.00  0.00     0.180 C 
ENDROOT
BRANCH   1   2
ATOM      2  C   ILE d   5      30.157   9.118  14.734  0.00  0.00     0.241 C 
ATOM      3  O   ILE d   5      30.053   9.579  15.869  0.00  0.00    -0.271 OA
ATOM      4  N   HIS d   6      29.108   9.102  13.848  0.00  0.00    -0.346 N 
ATOM      5  H   HIS d   6      29.280   8.784  12.911  0.00  0.00     0.163 HD
BRANCH   4   6
ATOM      6  CA  HIS d   6      27.942   9.999  13.874  0.00  0.00     0.182 C 
BRANCH   6   7
ATOM      7  CB  HIS d   6      28.133  10.837  12.546  0.00  0.00     0.087 C 
BRANCH   7   8
ATOM      8  CG  HIS d   6      28.715  12.207  12.521  0.00  0.00     0.010 C 
ATOM      9  CD2 HIS d   6      28.155  13.473  12.575  0.00  0.00     0.136 C 
ATOM     10  NE2 HIS d   6      29.145  14.415  12.691  0.00  0.00    -0.260 NA
ATOM     11  CE1 HIS d   6      30.259  13.727  12.711  0.00  0.00     0.180 C 
ATOM     12  ND1 HIS d   6      30.021  12.499  12.145  0.00  0.00    -0.256 NA
ATOM     13  HD1 HIS d   6      30.259  12.417  11.170  0.00  0.00     0.134 HD
ENDBRANCH   7   8
ENDBRANCH   6   7
BRANCH   6  14
ATOM     14  C   HIS d   6      26.683   9.004  13.868  0.00  0.00     0.243 C 
ATOM     15  O   HIS d   6      26.655   8.076  14.690  0.00  0.00    -0.271 OA
ATOM     16  N   PRO d   7      25.589   9.158  12.975  0.00  0.00    -0.337 N 
ATOM     17  CD  PRO d   7      25.090  10.459  12.526  0.00  0.00     0.127 C 
ATOM     18  CA  PRO d   7      24.396   8.241  13.127  0.00  0.00     0.179 C 
ATOM     19  CG  PRO d   7      23.694  10.568  13.144  0.00  0.00     0.022 C 
ATOM     20  CB  PRO d   7      23.413   9.213  13.798  0.00  0.00     0.037 C 
BRANCH  18  21
ATOM     21  C   PRO d   7      23.716   7.720  11.785  0.00  0.00     0.241 C 
ATOM     22  O   PRO d   7      23.494   8.505  10.855  0.00  0.00    -0.271 OA
ATOM     23  N   PHE d   8      23.364   6.409  11.508  0.00  0.00    -0.346 N 
ATOM     24  H   PHE d   8      22.910   6.445  10.602  0.00  0.00     0.163 HD
BRANCH  23  25
ATOM     25  CA  PHE d   8      22.944   5.231  12.337  0.00  0.00     0.180 C 
BRANCH  25  26
ATOM     26  CB  PHE d   8      21.713   4.452  11.694  0.00  0.00     0.073 C 
BRANCH  26  27
ATOM     27  CG  PHE d   8      21.817   3.027  11.113  0.00  0.00    -0.056 C 
ATOM     28  CD1 PHE d   8      20.913   2.032  11.489  0.00  0.00     0.007 C 
ATOM     29  CE1 PHE d   8      20.949   0.746  10.905  0.00  0.00     0.001 C 
ATOM     30  CZ  PHE d   8      21.938   0.396   9.982  0.00  0.00     0.000 C 
ATOM     31  CE2 PHE d   8      22.824   1.365   9.566  0.00  0.00     0.001 C 
ATOM     32  CD2 PHE d   8      22.689   2.660  10.064  0.00  0.00     0.007 C 
ENDBRANCH  26  27
ENDBRANCH  25  26
BRANCH  25  33
ATOM     33  C   PHE d   8      24.139   4.335  12.670  0.00  0.00     0.241 C 
ATOM     34  O   PHE d   8      25.147   4.391  11.983  0.00  0.00    -0.271 OA
ATOM     35  N   HIS d   9      24.129   3.410  13.663  0.00  0.00    -0.346 N 
ATOM     36  H   HIS d   9      25.062   3.027  13.690  0.00  0.00     0.163 HD
BRANCH  35  37
ATOM     37  CA  HIS d   9      23.273   3.164  14.840  0.00  0.00     0.182 C 
BRANCH  37  38
ATOM     38  CB  HIS d   9      22.045   2.217  14.826  0.00  0.00     0.093 C 
BRANCH  38  39
ATOM     39  CG  HIS d   9      22.324   0.803  15.103  0.00  0.00     0.030 C 
ATOM     40  CD2 HIS d   9      22.254  -0.285  14.284  0.00  0.00     0.143 C 
ATOM     41  NE2 HIS d   9      22.782  -1.390  14.887  0.00  0.00    -0.254 NA
ATOM     42  CE1 HIS d   9      23.083  -1.001  16.101  0.00  0.00     0.207 C 
ATOM     43  ND1 HIS d   9      22.664   0.279  16.325  0.00  0.00    -0.353 N 
ATOM     44  HD1 HIS d   9      22.637   0.742  17.223  0.00  0.00     0.166 HD
ENDBRANCH  38  39
ENDBRANCH  37  38
BRANCH  37  45
ATOM     45  C   HIS d   9      23.909   3.284  16.271  0.00  0.00     0.241 C 
ATOM     46  O   HIS d   9      25.119   3.089  16.430  0.00  0.00    -0.271 OA
ATOM     47  N   LEU d  10      23.203   3.504  17.424  0.00  0.00    -0.345 N 
ATOM     48  H   LEU d  10      23.874   3.450  18.187  0.00  0.00     0.163 HD
BRANCH  47  49
ATOM     49  CA  LEU d  10      22.197   4.545  17.731  0.00  0.00     0.182 C 
BRANCH  49  50
ATOM     50  CB  LEU d  10      20.814   4.203  17.198  0.00  0.00     0.040 C 
BRANCH  50  51
ATOM     51  CG  LEU d  10      20.054   5.373  16.626  0.00  0.00    -0.020 C 
ATOM     52  CD1 LEU d  10      20.022   5.211  15.118  0.00  0.00     0.009 C 
ATOM     53  CD2 LEU d  10      18.715   5.501  17.330  0.00  0.00     0.009 C 
ENDBRANCH  50  51
ENDBRANCH  49  50
BRANCH  49  54
ATOM     54  C   LEU d  10      22.289   4.936  19.227  0.00  0.00     0.163 C 
ATOM     55  OXT LEU d  10      21.337   5.262  19.935  0.00  0.00    -0.648 OA
BRANCH  54  56
ATOM     56  O   LEU d  10      23.549   4.879  19.703  0.00  0.00    -0.775 OA
ATOM     57  H   LEU d  10      23.550   4.955  20.677  0.00  0.00     0.167 HD
ENDBRANCH  54  56
ENDBRANCH  49  54
ENDBRANCH  47  49
ENDBRANCH  37  45
ENDBRANCH  35  37
ENDBRANCH  25  33
ENDBRANCH  23  25
ENDBRANCH  18  21
ENDBRANCH   6  14
ENDBRANCH   4   6
ENDBRANCH   1   2
BRANCH   1  58
ATOM     58  N   ILE d   5      32.573   9.044  14.991  0.00  0.00    -0.346 N 
ATOM     59  C   TYR d   4      33.770   9.410  14.402  0.00  0.00     0.241 C 
ATOM     60  O   TYR d   4      34.037   9.085  13.248  0.00  0.00    -0.271 OA
ATOM     61  H   ILE d   5      32.275   9.634  15.763  0.00  0.00     0.163 HD
BRANCH  59  62
ATOM     62  CA  TYR d   4      34.773  10.244  15.283  0.00  0.00     0.180 C 
BRANCH  62  63
ATOM     63  N   TYR d   4      36.164   9.674  15.207  0.00  0.00    -0.346 N 
ATOM     64  C   VAL d   3      36.549   8.648  16.068  0.00  0.00     0.241 C 
ATOM     65  O   VAL d   3      35.711   8.205  16.846  0.00  0.00    -0.271 OA
ATOM     66  H   TYR d   4      36.897  10.337  14.993  0.00  0.00     0.163 HD
BRANCH  64  67
ATOM     67  CA  VAL d   3      38.062   8.135  16.039  0.00  0.00     0.180 C 
BRANCH  67  68
ATOM     68  N   VAL d   3      38.504   6.852  16.716  0.00  0.00    -0.346 N 
ATOM     69  C   ARG d   2      38.014   5.649  17.126  0.00  0.00     0.241 C 
ATOM     70  O   ARG d   2      38.752   5.044  17.918  0.00  0.00    -0.271 OA
ATOM     71  H   VAL d   3      39.318   6.992  17.315  0.00  0.00     0.163 HD
BRANCH  69  72
ATOM     72  CA  ARG d   2      36.789   4.984  16.491  0.00  0.00     0.176 C 
BRANCH  72  73
ATOM     73  N   ARG d   2      37.183   4.294  15.256  0.00  0.00    -0.346 N 
ATOM     74  C   ASP d   1      37.571   2.977  15.219  0.00  0.00     0.252 C 
ATOM     75  O   ASP d   1      37.860   2.316  16.220  0.00  0.00    -0.271 OA
ATOM     76  H   ARG d   2      36.695   4.627  14.429  0.00  0.00     0.163 HD
BRANCH  74  77
ATOM     77  CA  ASP d   1      37.691   2.362  13.799  0.00  0.00     0.318 C 
BRANCH  77  78
ATOM     78  N   ASP d   1      39.124   2.436  13.395  0.00  0.00     0.092 N 
ATOM     79  H1  ASP d   1      39.723   2.353  14.214  0.00  0.00     0.313 HD
ATOM     80  H2  ASP d   1      39.291   3.396  13.058  0.00  0.00     0.313 HD
ENDBRANCH  77  78
BRANCH  77  81
ATOM     81  CB  ASP d   1      37.215   0.905  13.809  0.00  0.00     0.155 C 
BRANCH  81  82
ATOM     82  CG  ASP d   1      38.370  -0.055  13.790  0.00  0.00     0.141 C 
ATOM     83  OD2 ASP d   1      38.811  -0.648  12.821  0.00  0.00    -0.650 OA
BRANCH  82  84
ATOM     84  OD1 ASP d   1      38.968  -0.157  14.993  0.00  0.00    -0.776 OA
ATOM     85  HD1 ASP d   1      38.312  -0.603  15.565  0.00  0.00     0.167 HD
ENDBRANCH  82  84
ENDBRANCH  81  82
ENDBRANCH  77  81
ENDBRANCH  74  77
ENDBRANCH  72  73
BRANCH  72  86
ATOM     86  CB  ARG d   2      35.847   4.319  17.514  0.00  0.00     0.037 C 
BRANCH  86  87
ATOM     87  CG  ARG d   2      34.446   3.817  17.129  0.00  0.00     0.024 C 
BRANCH  87  88
ATOM     88  CD  ARG d   2      34.279   2.307  17.008  0.00  0.00     0.152 C 
BRANCH  88  89
ATOM     89  NE  ARG d   2      35.128   1.636  17.978  0.00  0.00    -0.268 NA
ATOM     90  CZ  ARG d   2      35.723   0.548  17.746  0.00  0.00     0.143 C 
ATOM     91  NH1 ARG d   2      36.458   0.002  18.730  0.00  0.00    -0.278 NA
ATOM     92  NH2 ARG d   2      35.726  -0.229  16.635  0.00  0.00    -0.278 NA
ATOM     93 1HH1 ARG d   2      36.614   0.697  19.475  0.00  0.00     0.126 HD
ATOM     94 2HH1 ARG d   2      37.280  -0.514  18.475  0.00  0.00     0.126 HD
ATOM     95 1HH2 ARG d   2      35.385   0.220  15.791  0.00  0.00     0.126 HD
ATOM     96 2HH2 ARG d   2      36.584  -0.754  16.464  0.00  0.00     0.126 HD
ENDBRANCH  88  89
ENDBRANCH  87  88
ENDBRANCH  86  87
ENDBRANCH  72  86
ENDBRANCH  69  72
ENDBRANCH  67  68
BRANCH  67  97
ATOM     97  CB  VAL d   3      38.545   7.917  14.559  0.00  0.00     0.009 C 
ATOM     98  CG1 VAL d   3      39.943   7.282  14.526  0.00  0.00     0.012 C 
ATOM     99  CG2 VAL d   3      37.583   7.184  13.629  0.00  0.00     0.012 C 
ENDBRANCH  67  97
ENDBRANCH  64  67
ENDBRANCH  62  63
BRANCH  62 100
ATOM    100  CB  TYR d   4      34.766  11.768  14.928  0.00  0.00     0.073 C 
BRANCH 100 101
ATOM    101  CG  TYR d   4      34.490  12.775  16.041  0.00  0.00    -0.056 A 
ATOM    102  CD1 TYR d   4      33.319  13.553  16.054  0.00  0.00     0.010 A 
ATOM    103  CE1 TYR d   4      33.043  14.433  17.111  0.00  0.00     0.037 A 
ATOM    104  CZ  TYR d   4      33.937  14.565  18.159  0.00  0.00     0.065 A 
ATOM    105  CE2 TYR d   4      35.090  13.798  18.190  0.00  0.00     0.037 A 
ATOM    106  CD2 TYR d   4      35.336  12.897  17.146  0.00  0.00     0.010 A 
BRANCH 104 107
ATOM    107  OH  TYR d   4      33.661  15.432  19.167  0.00  0.00    -0.361 OA
ATOM    108  HH  TYR d   4      34.421  15.394  19.775  0.00  0.00     0.217 HD
ENDBRANCH 104 107
ENDBRANCH 100 101
ENDBRANCH  62 100
ENDBRANCH  59  62
ENDBRANCH   1  58
BRANCH   1 109
ATOM    109  CB  ILE d   5      31.382   6.808  14.280  0.00  0.00     0.013 C 
ATOM    110  CG2 ILE d   5      31.078   6.174  12.915  0.00  0.00     0.012 C 
BRANCH 109 111
ATOM    111  CG1 ILE d   5      32.639   6.199  14.963  0.00  0.00     0.002 C 
ATOM    112  CD1 ILE d   5      33.650   5.530  14.042  0.00  0.00     0.005 C 
ENDBRANCH 109 111
ENDBRANCH   1 109
TORSDOF 41
ENDMDL
MODEL 5
REMARK VINA RESULT:      -6.1      8.325     16.976
REMARK WARNING: 32 MAX_TORS EXCEEDED!!!
REMARK  41 active torsions:
REMARK  status: ('A' for Active; 'I' for Inactive)
REMARK    1  A    between atoms: CB_3  and  CG1_2 
REMARK    2  A    between atoms: CA_4  and  CB_3 
REMARK    3  A    between atoms: CA_4  and  C_6 
REMARK    4  A    between atoms: CA_4  and  N_7 
REMARK       I    between atoms: C_6  and  N_8 
REMARK       I    between atoms: N_7  and  C_10 
REMARK    5  A    between atoms: N_8  and  CA_11 
REMARK    6  A    between atoms: CA_12  and  C_10 
REMARK    7  A    between atoms: CA_11  and  CB_15 
REMARK    8  A    between atoms: CA_11  and  C_14 
REMARK    9  A    between atoms: CA_12  and  N_17 
REMARK   10  A    between atoms: CA_12  and  CB_16 
REMARK       I    between atoms: C_14  and  N_18 
REMARK   11  A    between atoms: CB_15  and  CG_20 
REMARK   12  A    between atoms: CB_16  and  CG_21 
REMARK       I    between atoms: N_17  and  C_22 
REMARK   13  A    between atoms: C_22  and  CA_29 
REMARK   14  A    between atoms: CA_24  and  C_33 
REMARK   15  A    between atoms: CA_29  and  N_39 
REMARK   16  A    between atoms: CA_29  and  CB_38 
REMARK       I    between atoms: C_33  and  N_40 
REMARK       I    between atoms: N_39  and  C_45 
REMARK   17  A    between atoms: N_40  and  CA_46 
REMARK   18  A    between atoms: CZ_42  and  OH_47 
REMARK   19  A    between atoms: CA_48  and  C_45 
REMARK   20  A    between atoms: CA_46  and  CB_51 
REMARK   21  A    between atoms: CA_46  and  C_50 
REMARK   22  A    between atoms: CA_48  and  N_52 
REMARK   23  A    between atoms: CA_48  and  CB_53 
REMARK       I    between atoms: C_50  and  N_54 
REMARK   24  A    between atoms: CB_51  and  CG_56 
REMARK       I    between atoms: N_52  and  C_57 
REMARK   25  A    between atoms: CB_53  and  CG_58 
REMARK   26  A    between atoms: N_54  and  CA_59 
REMARK   27  A    between atoms: C_57  and  CA_62 
REMARK   28  A    between atoms: CG_58  and  CD_64 
REMARK   29  A    between atoms: CA_59  and  CB_66 
REMARK   30  A    between atoms: CA_59  and  C_65 
REMARK   31  A    between atoms: CA_62  and  N_70 
REMARK   32  A    between atoms: CA_62  and  CB_69 
REMARK   33  A    between atoms: CD_64  and  NE_71 
REMARK       I    between atoms: C_65  and  N_72 
REMARK   34  A    between atoms: CB_66  and  CG_74 
REMARK   35  A    between atoms: CB_69  and  CG_76 
REMARK   36  A    between atoms: N_72  and  CA_78 
REMARK   37  A    between atoms: CG_76  and  OD1_82 
REMARK       I    between atoms: CZ_77  and  NH1_83 
REMARK       I    between atoms: CZ_77  and  NH2_84 
REMARK   38  A    between atoms: CA_78  and  CB_86 
REMARK   39  A    between atoms: CA_78  and  C_85 
REMARK   40  A    between atoms: C_85  and  O_90 
REMARK   41  A    between atoms: CB_86  and  CG_91 
ROOT
ATOM      1  CA  ILE d   5      19.863   6.006  17.380  0.00  0.00     0.180 C 
ENDROOT
BRANCH   1   2
ATOM      2  C   ILE d   5      20.922   5.741  16.257  0.00  0.00     0.241 C 
ATOM      3  O   ILE d   5      21.282   6.638  15.496  0.00  0.00    -0.271 OA
ATOM      4  N   HIS d   6      21.320   4.437  16.095  0.00  0.00    -0.346 N 
ATOM      5  H   HIS d   6      21.055   3.767  16.795  0.00  0.00     0.163 HD
BRANCH   4   6
ATOM      6  CA  HIS d   6      22.531   3.985  15.393  0.00  0.00     0.182 C 
BRANCH   6   7
ATOM      7  CB  HIS d   6      23.060   2.834  16.341  0.00  0.00     0.087 C 
BRANCH   7   8
ATOM      8  CG  HIS d   6      23.199   1.417  15.908  0.00  0.00     0.010 C 
ATOM      9  CD2 HIS d   6      24.220   0.714  15.290  0.00  0.00     0.136 C 
ATOM     10  NE2 HIS d   6      23.913  -0.623  15.262  0.00  0.00    -0.260 NA
ATOM     11  CE1 HIS d   6      22.747  -0.710  15.851  0.00  0.00     0.180 C 
ATOM     12  ND1 HIS d   6      22.141   0.522  15.798  0.00  0.00    -0.256 NA
ATOM     13  HD1 HIS d   6      21.491   0.654  15.041  0.00  0.00     0.134 HD
ENDBRANCH   7   8
ENDBRANCH   6   7
BRANCH   6  14
ATOM     14  C   HIS d   6      21.993   3.489  13.965  0.00  0.00     0.243 C 
ATOM     15  O   HIS d   6      21.139   2.591  13.932  0.00  0.00    -0.271 OA
ATOM     16  N   PRO d   7      22.439   4.053  12.739  0.00  0.00    -0.337 N 
ATOM     17  CD  PRO d   7      22.790   5.465  12.581  0.00  0.00     0.127 C 
ATOM     18  CA  PRO d   7      21.785   3.599  11.454  0.00  0.00     0.179 C 
ATOM     19  CG  PRO d   7      21.720   6.022  11.638  0.00  0.00     0.022 C 
ATOM     20  CB  PRO d   7      20.892   4.819  11.179  0.00  0.00     0.037 C 
BRANCH  18  21
ATOM     21  C   PRO d   7      22.738   3.407  10.193  0.00  0.00     0.241 C 
ATOM     22  O   PRO d   7      22.501   4.008   9.138  0.00  0.00    -0.271 OA
ATOM     23  N   PHE d   8      23.887   2.635  10.152  0.00  0.00    -0.346 N 
ATOM     24  H   PHE d   8      24.208   2.693   9.192  0.00  0.00     0.163 HD
BRANCH  23  25
ATOM     25  CA  PHE d   8      24.353   1.397  10.862  0.00  0.00     0.180 C 
BRANCH  25  26
ATOM     26  CB  PHE d   8      25.139   1.736  12.206  0.00  0.00     0.073 C 
BRANCH  26  27
ATOM     27  CG  PHE d   8      26.178   2.869  12.321  0.00  0.00    -0.056 C 
ATOM     28  CD1 PHE d   8      26.035   3.879  13.274  0.00  0.00     0.007 C 
ATOM     29  CE1 PHE d   8      27.019   4.878  13.443  0.00  0.00     0.001 C 
ATOM     30  CZ  PHE d   8      28.140   4.938  12.611  0.00  0.00     0.000 C 
ATOM     31  CE2 PHE d   8      28.328   3.938  11.684  0.00  0.00     0.001 C 
ATOM     32  CD2 PHE d   8      27.405   2.895  11.621  0.00  0.00     0.007 C 
ENDBRANCH  26  27
ENDBRANCH  25  26
BRANCH  25  33
ATOM     33  C   PHE d   8      23.207   0.402  11.048  0.00  0.00     0.241 C 
ATOM     34  O   PHE d   8      22.627   0.340  12.121  0.00  0.00    -0.271 OA
ATOM     35  N   HIS d   9      22.823  -0.488  10.097  0.00  0.00    -0.346 N 
ATOM     36  H   HIS d   9      22.013  -0.957  10.472  0.00  0.00     0.163 HD
BRANCH  35  37
ATOM     37  CA  HIS d   9      23.056  -0.615   8.646  0.00  0.00     0.182 C 
BRANCH  37  38
ATOM     38  CB  HIS d   9      23.062  -1.971   7.891  0.00  0.00     0.093 C 
BRANCH  38  39
ATOM     39  CG  HIS d   9      24.356  -2.389   7.338  0.00  0.00     0.030 C 
ATOM     40  CD2 HIS d   9      25.525  -2.695   7.969  0.00  0.00     0.143 C 
ATOM     41  NE2 HIS d   9      26.432  -3.222   7.096  0.00  0.00    -0.254 NA
ATOM     42  CE1 HIS d   9      25.855  -3.148   5.922  0.00  0.00     0.207 C 
ATOM     43  ND1 HIS d   9      24.659  -2.493   6.004  0.00  0.00    -0.353 N 
ATOM     44  HD1 HIS d   9      24.108  -2.172   5.220  0.00  0.00     0.166 HD
ENDBRANCH  38  39
ENDBRANCH  37  38
BRANCH  37  45
ATOM     45  C   HIS d   9      22.645   0.578   7.710  0.00  0.00     0.241 C 
ATOM     46  O   HIS d   9      21.488   1.012   7.731  0.00  0.00    -0.271 OA
ATOM     47  N   LEU d  10      23.458   1.149   6.768  0.00  0.00    -0.345 N 
ATOM     48  H   LEU d  10      22.890   1.832   6.273  0.00  0.00     0.163 HD
BRANCH  47  49
ATOM     49  CA  LEU d  10      24.839   1.665   6.899  0.00  0.00     0.182 C 
BRANCH  49  50
ATOM     50  CB  LEU d  10      25.845   0.873   6.077  0.00  0.00     0.040 C 
BRANCH  50  51
ATOM     51  CG  LEU d  10      27.109   0.509   6.814  0.00  0.00    -0.020 C 
ATOM     52  CD1 LEU d  10      28.254   1.272   6.175  0.00  0.00     0.009 C 
ATOM     53  CD2 LEU d  10      26.901   0.707   8.305  0.00  0.00     0.009 C 
ENDBRANCH  50  51
ENDBRANCH  49  50
BRANCH  49  54
ATOM     54  C   LEU d  10      24.843   3.202   6.710  0.00  0.00     0.163 C 
ATOM     55  OXT LEU d  10      25.831   3.928   6.815  0.00  0.00    -0.648 OA
BRANCH  54  56
ATOM     56  O   LEU d  10      23.624   3.692   6.404  0.00  0.00    -0.775 OA
ATOM     57  H   LEU d  10      22.940   3.006   6.529  0.00  0.00     0.167 HD
ENDBRANCH  54  56
ENDBRANCH  49  54
ENDBRANCH  47  49
ENDBRANCH  37  45
ENDBRANCH  35  37
ENDBRANCH  25  33
ENDBRANCH  23  25
ENDBRANCH  18  21
ENDBRANCH   6  14
ENDBRANCH   4   6
ENDBRANCH   1   2
BRANCH   1  58
ATOM     58  N   ILE d   5      18.552   5.661  16.790  0.00  0.00    -0.346 N 
ATOM     59  C   TYR d   4      17.738   6.563  16.127  0.00  0.00     0.241 C 
ATOM     60  O   TYR d   4      18.007   7.761  16.099  0.00  0.00    -0.271 OA
ATOM     61  H   ILE d   5      18.481   4.700  16.468  0.00  0.00     0.163 HD
BRANCH  59  62
ATOM     62  CA  TYR d   4      16.454   5.983  15.426  0.00  0.00     0.180 C 
BRANCH  62  63
ATOM     63  N   TYR d   4      15.849   6.991  14.486  0.00  0.00    -0.346 N 
ATOM     64  C   VAL d   3      14.466   7.148  14.421  0.00  0.00     0.241 C 
ATOM     65  O   VAL d   3      13.774   6.475  15.180  0.00  0.00    -0.271 OA
ATOM     66  H   TYR d   4      16.324   7.101  13.600  0.00  0.00     0.163 HD
BRANCH  64  67
ATOM     67  CA  VAL d   3      13.846   8.147  13.339  0.00  0.00     0.180 C 
BRANCH  67  68
ATOM     68  N   VAL d   3      12.625   9.002  13.619  0.00  0.00    -0.346 N 
ATOM     69  C   ARG d   2      11.962   9.593  14.652  0.00  0.00     0.241 C 
ATOM     70  O   ARG d   2      10.809   9.955  14.374  0.00  0.00    -0.271 OA
ATOM     71  H   VAL d   3      11.902   8.887  12.909  0.00  0.00     0.163 HD
BRANCH  69  72
ATOM     72  CA  ARG d   2      12.645  10.000  15.962  0.00  0.00     0.176 C 
BRANCH  72  73
ATOM     73  N   ARG d   2      12.886   8.810  16.786  0.00  0.00    -0.346 N 
ATOM     74  C   ASP d   1      11.900   8.178  17.504  0.00  0.00     0.252 C 
ATOM     75  O   ASP d   1      10.790   8.667  17.726  0.00  0.00    -0.271 OA
ATOM     76  H   ARG d   2      13.617   8.204  16.424  0.00  0.00     0.163 HD
BRANCH  74  77
ATOM     77  CA  ASP d   1      12.293   6.796  18.093  0.00  0.00     0.318 C 
BRANCH  77  78
ATOM     78  N   ASP d   1      12.343   6.935  19.576  0.00  0.00     0.092 N 
ATOM     79  H1  ASP d   1      13.020   7.650  19.837  0.00  0.00     0.313 HD
ATOM     80  H2  ASP d   1      12.744   6.061  19.945  0.00  0.00     0.313 HD
ENDBRANCH  77  78
BRANCH  77  81
ATOM     81  CB  ASP d   1      11.263   5.735  17.691  0.00  0.00     0.155 C 
BRANCH  81  82
ATOM     82  CG  ASP d   1      10.646   5.078  18.893  0.00  0.00     0.141 C 
ATOM     83  OD2 ASP d   1       9.646   5.438  19.489  0.00  0.00    -0.650 OA
BRANCH  82  84
ATOM     84  OD1 ASP d   1      11.282   3.941  19.235  0.00  0.00    -0.776 OA
ATOM     85  HD1 ASP d   1      11.787   3.683  18.438  0.00  0.00     0.167 HD
ENDBRANCH  82  84
ENDBRANCH  81  82
ENDBRANCH  77  81
ENDBRANCH  74  77
ENDBRANCH  72  73
BRANCH  72  86
ATOM     86  CB  ARG d   2      13.727  11.084  15.782  0.00  0.00     0.037 C 
BRANCH  86  87
ATOM     87  CG  ARG d   2      15.170  10.886  16.274  0.00  0.00     0.024 C 
BRANCH  87  88
ATOM     88  CD  ARG d   2      15.441  11.242  17.732  0.00  0.00     0.152 C 
BRANCH  88  89
ATOM     89  NE  ARG d   2      14.969  10.175  18.598  0.00  0.00    -0.268 NA
ATOM     90  CZ  ARG d   2      15.677   9.186  18.934  0.00  0.00     0.143 C 
ATOM     91  NH1 ARG d   2      15.124   8.243  19.715  0.00  0.00    -0.278 NA
ATOM     92  NH2 ARG d   2      16.953   8.870  18.601  0.00  0.00    -0.278 NA
ATOM     93 1HH1 ARG d   2      14.247   8.599  20.122  0.00  0.00     0.126 HD
ATOM     94 2HH1 ARG d   2      15.716   7.766  20.371  0.00  0.00     0.126 HD
ATOM     95 1HH2 ARG d   2      17.500   9.630  18.208  0.00  0.00     0.126 HD
ATOM     96 2HH2 ARG d   2      17.479   8.352  19.306  0.00  0.00     0.126 HD
ENDBRANCH  88  89
ENDBRANCH  87  88
ENDBRANCH  86  87
ENDBRANCH  72  86
ENDBRANCH  69  72
ENDBRANCH  67  68
BRANCH  67  97
ATOM     97  CB  VAL d   3      14.910   9.216  12.899  0.00  0.00     0.009 C 
ATOM     98  CG1 VAL d   3      15.922   8.611  11.914  0.00  0.00     0.012 C 
ATOM     99  CG2 VAL d   3      14.368  10.547  12.387  0.00  0.00     0.012 C 
ENDBRANCH  67  97
ENDBRANCH  64  67
ENDBRANCH  62  63
BRANCH  62 100
ATOM    100  CB  TYR d   4      16.721   4.622  14.702  0.00  0.00     0.073 C 
BRANCH 100 101
ATOM    101  CG  TYR d   4      15.703   4.126  13.680  0.00  0.00    -0.056 A 
ATOM    102  CD1 TYR d   4      15.848   4.396  12.308  0.00  0.00     0.010 A 
ATOM    103  CE1 TYR d   4      14.941   3.885  11.367  0.00  0.00     0.037 A 
ATOM    104  CZ  TYR d   4      13.868   3.115  11.780  0.00  0.00     0.065 A 
ATOM    105  CE2 TYR d   4      13.708   2.810  13.121  0.00  0.00     0.037 A 
ATOM    106  CD2 TYR d   4      14.640   3.297  14.047  0.00  0.00     0.010 A 
BRANCH 104 107
ATOM    107  OH  TYR d   4      12.992   2.641  10.857  0.00  0.00    -0.361 OA
ATOM    108  HH  TYR d   4      12.934   1.680  11.006  0.00  0.00     0.217 HD
ENDBRANCH 104 107
ENDBRANCH 100 101
ENDBRANCH  62 100
ENDBRANCH  59  62
ENDBRANCH   1  58
BRANCH   1 109
ATOM    109  CB  ILE d   5      20.233   5.422  18.800  0.00  0.00     0.013 C 
ATOM    110  CG2 ILE d   5      21.728   5.141  19.007  0.00  0.00     0.012 C 
BRANCH 109 111
ATOM    111  CG1 ILE d   5      19.621   6.298  19.929  0.00  0.00     0.002 C 
ATOM    112  CD1 ILE d   5      18.120   6.161  20.149  0.00  0.00     0.005 C 
ENDBRANCH 109 111
ENDBRANCH   1 109
TORSDOF 41
ENDMDL
MODEL 6
REMARK VINA RESULT:      -6.1     18.400     28.526
REMARK WARNING: 32 MAX_TORS EXCEEDED!!!
REMARK  41 active torsions:
REMARK  status: ('A' for Active; 'I' for Inactive)
REMARK    1  A    between atoms: CB_3  and  CG1_2 
REMARK    2  A    between atoms: CA_4  and  CB_3 
REMARK    3  A    between atoms: CA_4  and  C_6 
REMARK    4  A    between atoms: CA_4  and  N_7 
REMARK       I    between atoms: C_6  and  N_8 
REMARK       I    between atoms: N_7  and  C_10 
REMARK    5  A    between atoms: N_8  and  CA_11 
REMARK    6  A    between atoms: CA_12  and  C_10 
REMARK    7  A    between atoms: CA_11  and  CB_15 
REMARK    8  A    between atoms: CA_11  and  C_14 
REMARK    9  A    between atoms: CA_12  and  N_17 
REMARK   10  A    between atoms: CA_12  and  CB_16 
REMARK       I    between atoms: C_14  and  N_18 
REMARK   11  A    between atoms: CB_15  and  CG_20 
REMARK   12  A    between atoms: CB_16  and  CG_21 
REMARK       I    between atoms: N_17  and  C_22 
REMARK   13  A    between atoms: C_22  and  CA_29 
REMARK   14  A    between atoms: CA_24  and  C_33 
REMARK   15  A    between atoms: CA_29  and  N_39 
REMARK   16  A    between atoms: CA_29  and  CB_38 
REMARK       I    between atoms: C_33  and  N_40 
REMARK       I    between atoms: N_39  and  C_45 
REMARK   17  A    between atoms: N_40  and  CA_46 
REMARK   18  A    between atoms: CZ_42  and  OH_47 
REMARK   19  A    between atoms: CA_48  and  C_45 
REMARK   20  A    between atoms: CA_46  and  CB_51 
REMARK   21  A    between atoms: CA_46  and  C_50 
REMARK   22  A    between atoms: CA_48  and  N_52 
REMARK   23  A    between atoms: CA_48  and  CB_53 
REMARK       I    between atoms: C_50  and  N_54 
REMARK   24  A    between atoms: CB_51  and  CG_56 
REMARK       I    between atoms: N_52  and  C_57 
REMARK   25  A    between atoms: CB_53  and  CG_58 
REMARK   26  A    between atoms: N_54  and  CA_59 
REMARK   27  A    between atoms: C_57  and  CA_62 
REMARK   28  A    between atoms: CG_58  and  CD_64 
REMARK   29  A    between atoms: CA_59  and  CB_66 
REMARK   30  A    between atoms: CA_59  and  C_65 
REMARK   31  A    between atoms: CA_62  and  N_70 
REMARK   32  A    between atoms: CA_62  and  CB_69 
REMARK   33  A    between atoms: CD_64  and  NE_71 
REMARK       I    between atoms: C_65  and  N_72 
REMARK   34  A    between atoms: CB_66  and  CG_74 
REMARK   35  A    between atoms: CB_69  and  CG_76 
REMARK   36  A    between atoms: N_72  and  CA_78 
REMARK   37  A    between atoms: CG_76  and  OD1_82 
REMARK       I    between atoms: CZ_77  and  NH1_83 
REMARK       I    between atoms: CZ_77  and  NH2_84 
REMARK   38  A    between atoms: CA_78  and  CB_86 
REMARK   39  A    between atoms: CA_78  and  C_85 
REMARK   40  A    between atoms: C_85  and  O_90 
REMARK   41  A    between atoms: CB_86  and  CG_91 
ROOT
ATOM      1  CA  ILE d   5       5.511  -5.955  23.451  0.00  0.00     0.180 C 
ENDROOT
BRANCH   1   2
ATOM      2  C   ILE d   5       5.617  -6.505  21.988  0.00  0.00     0.241 C 
ATOM      3  O   ILE d   5       4.653  -7.029  21.434  0.00  0.00    -0.271 OA
ATOM      4  N   HIS d   6       6.867  -6.482  21.421  0.00  0.00    -0.346 N 
ATOM      5  H   HIS d   6       7.593  -5.970  21.889  0.00  0.00     0.163 HD
BRANCH   4   6
ATOM      6  CA  HIS d   6       7.166  -6.588  19.985  0.00  0.00     0.182 C 
BRANCH   6   7
ATOM      7  CB  HIS d   6       7.225  -5.070  19.541  0.00  0.00     0.087 C 
BRANCH   7   8
ATOM      8  CG  HIS d   6       6.963  -3.937  20.468  0.00  0.00     0.010 C 
ATOM      9  CD2 HIS d   6       5.949  -2.996  20.549  0.00  0.00     0.136 C 
ATOM     10  NE2 HIS d   6       6.083  -2.264  21.701  0.00  0.00    -0.260 NA
ATOM     11  CE1 HIS d   6       7.143  -2.760  22.289  0.00  0.00     0.180 C 
ATOM     12  ND1 HIS d   6       7.902  -3.404  21.344  0.00  0.00    -0.256 NA
ATOM     13  HD1 HIS d   6       8.657  -2.865  20.952  0.00  0.00     0.134 HD
ENDBRANCH   7   8
ENDBRANCH   6   7
BRANCH   6  14
ATOM     14  C   HIS d   6       8.571  -7.361  19.933  0.00  0.00     0.243 C 
ATOM     15  O   HIS d   6       9.171  -7.573  20.997  0.00  0.00    -0.271 OA
ATOM     16  N   PRO d   7       9.143  -7.832  18.721  0.00  0.00    -0.337 N 
ATOM     17  CD  PRO d   7       8.351  -8.337  17.598  0.00  0.00     0.127 C 
ATOM     18  CA  PRO d   7      10.411  -8.652  18.790  0.00  0.00     0.179 C 
ATOM     19  CG  PRO d   7       8.701  -9.825  17.523  0.00  0.00     0.022 C 
ATOM     20  CB  PRO d   7       9.824 -10.049  18.539  0.00  0.00     0.037 C 
BRANCH  18  21
ATOM     21  C   PRO d   7      11.503  -8.380  17.664  0.00  0.00     0.241 C 
ATOM     22  O   PRO d   7      11.234  -7.655  16.699  0.00  0.00    -0.271 OA
ATOM     23  N   PHE d   8      12.804  -8.856  17.662  0.00  0.00    -0.346 N 
ATOM     24  H   PHE d   8      13.197  -8.543  16.781  0.00  0.00     0.163 HD
BRANCH  23  25
ATOM     25  CA  PHE d   8      13.485 -10.073  18.218  0.00  0.00     0.180 C 
BRANCH  25  26
ATOM     26  CB  PHE d   8      12.973 -11.415  17.530  0.00  0.00     0.073 C 
BRANCH  26  27
ATOM     27  CG  PHE d   8      13.053 -12.800  18.203  0.00  0.00    -0.056 C 
ATOM     28  CD1 PHE d   8      12.657 -12.977  19.529  0.00  0.00     0.007 C 
ATOM     29  CE1 PHE d   8      12.651 -14.255  20.132  0.00  0.00     0.001 C 
ATOM     30  CZ  PHE d   8      13.114 -15.381  19.447  0.00  0.00     0.000 C 
ATOM     31  CE2 PHE d   8      13.480 -15.246  18.127  0.00  0.00     0.001 C 
ATOM     32  CD2 PHE d   8      13.358 -13.998  17.518  0.00  0.00     0.007 C 
ENDBRANCH  26  27
ENDBRANCH  25  26
BRANCH  25  33
ATOM     33  C   PHE d   8      15.006  -9.910  18.204  0.00  0.00     0.241 C 
ATOM     34  O   PHE d   8      15.640 -10.057  19.237  0.00  0.00    -0.271 OA
ATOM     35  N   HIS d   9      15.711  -9.539  17.105  0.00  0.00    -0.346 N 
ATOM     36  H   HIS d   9      16.681  -9.581  17.374  0.00  0.00     0.163 HD
BRANCH  35  37
ATOM     37  CA  HIS d   9      15.421  -9.490  15.658  0.00  0.00     0.182 C 
BRANCH  37  38
ATOM     38  CB  HIS d   9      14.518  -8.414  14.999  0.00  0.00     0.093 C 
BRANCH  38  39
ATOM     39  CG  HIS d   9      13.296  -8.912  14.355  0.00  0.00     0.030 C 
ATOM     40  CD2 HIS d   9      12.857 -10.190  14.172  0.00  0.00     0.143 C 
ATOM     41  NE2 HIS d   9      11.577 -10.206  13.696  0.00  0.00    -0.254 NA
ATOM     42  CE1 HIS d   9      11.273  -8.947  13.499  0.00  0.00     0.207 C 
ATOM     43  ND1 HIS d   9      12.352  -8.140  13.728  0.00  0.00    -0.353 N 
ATOM     44  HD1 HIS d   9      12.414  -7.159  13.492  0.00  0.00     0.166 HD
ENDBRANCH  38  39
ENDBRANCH  37  38
BRANCH  37  45
ATOM     45  C   HIS d   9      16.491 -10.055  14.657  0.00  0.00     0.241 C 
ATOM     46  O   HIS d   9      16.140 -10.772  13.714  0.00  0.00    -0.271 OA
ATOM     47  N   LEU d  10      17.845  -9.894  14.786  0.00  0.00    -0.345 N 
ATOM     48  H   LEU d  10      18.272 -10.436  14.038  0.00  0.00     0.163 HD
BRANCH  47  49
ATOM     49  CA  LEU d  10      18.633  -8.661  15.008  0.00  0.00     0.182 C 
BRANCH  49  50
ATOM     50  CB  LEU d  10      17.955  -7.419  14.450  0.00  0.00     0.040 C 
BRANCH  50  51
ATOM     51  CG  LEU d  10      18.546  -6.907  13.161  0.00  0.00    -0.020 C 
ATOM     52  CD1 LEU d  10      19.118  -5.528  13.429  0.00  0.00     0.009 C 
ATOM     53  CD2 LEU d  10      19.499  -7.944  12.594  0.00  0.00     0.009 C 
ENDBRANCH  50  51
ENDBRANCH  49  50
BRANCH  49  54
ATOM     54  C   LEU d  10      19.096  -8.596  16.485  0.00  0.00     0.163 C 
ATOM     55  OXT LEU d  10      20.141  -9.076  16.924  0.00  0.00    -0.648 OA
BRANCH  54  56
ATOM     56  O   LEU d  10      18.224  -7.938  17.275  0.00  0.00    -0.775 OA
ATOM     57  H   LEU d  10      17.707  -8.568  17.813  0.00  0.00     0.167 HD
ENDBRANCH  54  56
ENDBRANCH  49  54
ENDBRANCH  47  49
ENDBRANCH  37  45
ENDBRANCH  35  37
ENDBRANCH  25  33
ENDBRANCH  23  25
ENDBRANCH  18  21
ENDBRANCH   6  14
ENDBRANCH   4   6
ENDBRANCH   1   2
BRANCH   1  58
ATOM     58  N   ILE d   5       4.377  -5.006  23.445  0.00  0.00    -0.346 N 
ATOM     59  C   TYR d   4       4.145  -4.067  24.434  0.00  0.00     0.241 C 
ATOM     60  O   TYR d   4       4.814  -4.050  25.465  0.00  0.00    -0.271 OA
ATOM     61  H   ILE d   5       4.064  -4.739  22.516  0.00  0.00     0.163 HD
BRANCH  59  62
ATOM     62  CA  TYR d   4       2.982  -3.036  24.182  0.00  0.00     0.180 C 
BRANCH  62  63
ATOM     63  N   TYR d   4       3.348  -2.065  23.092  0.00  0.00    -0.346 N 
ATOM     64  C   VAL d   3       3.162  -0.696  23.280  0.00  0.00     0.241 C 
ATOM     65  O   VAL d   3       2.737  -0.317  24.368  0.00  0.00    -0.271 OA
ATOM     66  H   TYR d   4       3.176  -2.384  22.147  0.00  0.00     0.163 HD
BRANCH  64  67
ATOM     67  CA  VAL d   3       3.457   0.303  22.069  0.00  0.00     0.180 C 
BRANCH  67  68
ATOM     68  N   VAL d   3       4.786   0.334  21.339  0.00  0.00    -0.346 N 
ATOM     69  C   ARG d   2       5.654   1.209  20.759  0.00  0.00     0.241 C 
ATOM     70  O   ARG d   2       6.492   0.675  20.016  0.00  0.00    -0.271 OA
ATOM     71  H   VAL d   3       4.987  -0.548  20.865  0.00  0.00     0.163 HD
BRANCH  69  72
ATOM     72  CA  ARG d   2       5.754   2.682  21.166  0.00  0.00     0.176 C 
BRANCH  72  73
ATOM     73  N   ARG d   2       7.115   3.174  20.918  0.00  0.00    -0.346 N 
ATOM     74  C   ASP d   1       7.964   3.581  21.918  0.00  0.00     0.252 C 
ATOM     75  O   ASP d   1       7.605   3.805  23.077  0.00  0.00    -0.271 OA
ATOM     76  H   ARG d   2       7.564   2.742  20.115  0.00  0.00     0.163 HD
BRANCH  74  77
ATOM     77  CA  ASP d   1       9.436   3.812  21.484  0.00  0.00     0.318 C 
BRANCH  77  78
ATOM     78  N   ASP d   1       9.790   2.746  20.504  0.00  0.00     0.092 N 
ATOM     79  H1  ASP d   1      10.099   3.166  19.628  0.00  0.00     0.313 HD
ATOM     80  H2  ASP d   1       8.914   2.264  20.256  0.00  0.00     0.313 HD
ENDBRANCH  77  78
BRANCH  77  81
ATOM     81  CB  ASP d   1       9.591   5.196  20.845  0.00  0.00     0.155 C 
BRANCH  81  82
ATOM     82  CG  ASP d   1      11.015   5.471  20.456  0.00  0.00     0.141 C 
ATOM     83  OD2 ASP d   1      11.602   5.040  19.479  0.00  0.00    -0.650 OA
BRANCH  82  84
ATOM     84  OD1 ASP d   1      11.608   6.352  21.285  0.00  0.00    -0.776 OA
ATOM     85  HD1 ASP d   1      11.424   6.017  22.185  0.00  0.00     0.167 HD
ENDBRANCH  82  84
ENDBRANCH  81  82
ENDBRANCH  77  81
ENDBRANCH  74  77
ENDBRANCH  72  73
BRANCH  72  86
ATOM     86  CB  ARG d   2       4.517   3.516  20.777  0.00  0.00     0.037 C 
BRANCH  86  87
ATOM     87  CG  ARG d   2       3.515   4.027  21.825  0.00  0.00     0.024 C 
BRANCH  87  88
ATOM     88  CD  ARG d   2       4.046   4.189  23.245  0.00  0.00     0.152 C 
BRANCH  88  89
ATOM     89  NE  ARG d   2       3.331   3.301  24.146  0.00  0.00    -0.268 NA
ATOM     90  CZ  ARG d   2       3.736   3.012  25.305  0.00  0.00     0.143 C 
ATOM     91  NH1 ARG d   2       3.008   2.154  26.038  0.00  0.00    -0.278 NA
ATOM     92  NH2 ARG d   2       4.853   3.405  25.965  0.00  0.00    -0.278 NA
ATOM     93 1HH1 ARG d   2       2.076   2.036  25.613  0.00  0.00     0.126 HD
ATOM     94 2HH1 ARG d   2       2.990   2.280  27.034  0.00  0.00     0.126 HD
ATOM     95 1HH2 ARG d   2       5.327   4.213  25.574  0.00  0.00     0.126 HD
ATOM     96 2HH2 ARG d   2       4.766   3.473  26.980  0.00  0.00     0.126 HD
ENDBRANCH  88  89
ENDBRANCH  87  88
ENDBRANCH  86  87
ENDBRANCH  72  86
ENDBRANCH  69  72
ENDBRANCH  67  68
BRANCH  67  97
ATOM     97  CB  VAL d   3       2.436   0.069  20.897  0.00  0.00     0.009 C 
ATOM     98  CG1 VAL d   3       1.384   1.187  20.853  0.00  0.00     0.012 C 
ATOM     99  CG2 VAL d   3       3.032  -0.185  19.515  0.00  0.00     0.012 C 
ENDBRANCH  67  97
ENDBRANCH  64  67
ENDBRANCH  62  63
BRANCH  62 100
ATOM    100  CB  TYR d   4       1.612  -3.730  23.886  0.00  0.00     0.073 C 
BRANCH 100 101
ATOM    101  CG  TYR d   4       0.605  -3.010  22.995  0.00  0.00    -0.056 A 
ATOM    102  CD1 TYR d   4      -0.249  -2.017  23.506  0.00  0.00     0.010 A 
ATOM    103  CE1 TYR d   4      -1.131  -1.316  22.669  0.00  0.00     0.037 A 
ATOM    104  CZ  TYR d   4      -1.186  -1.605  21.317  0.00  0.00     0.065 A 
ATOM    105  CE2 TYR d   4      -0.342  -2.560  20.776  0.00  0.00     0.037 A 
ATOM    106  CD2 TYR d   4       0.557  -3.229  21.616  0.00  0.00     0.010 A 
BRANCH 104 107
ATOM    107  OH  TYR d   4      -2.054  -0.926  20.524  0.00  0.00    -0.361 OA
ATOM    108  HH  TYR d   4      -1.843  -1.181  19.608  0.00  0.00     0.217 HD
ENDBRANCH 104 107
ENDBRANCH 100 101
ENDBRANCH  62 100
ENDBRANCH  59  62
ENDBRANCH   1  58
BRANCH   1 109
ATOM    109  CB  ILE d   5       5.579  -7.050  24.585  0.00  0.00     0.013 C 
ATOM    110  CG2 ILE d   5       5.566  -8.500  24.079  0.00  0.00     0.012 C 
BRANCH 109 111
ATOM    111  CG1 ILE d   5       6.756  -6.760  25.558  0.00  0.00     0.002 C 
ATOM    112  CD1 ILE d   5       6.411  -6.721  27.041  0.00  0.00     0.005 C 
ENDBRANCH 109 111
ENDBRANCH   1 109
TORSDOF 41
ENDMDL
MODEL 7
REMARK VINA RESULT:      -6.0      2.178      4.608
REMARK WARNING: 32 MAX_TORS EXCEEDED!!!
REMARK  41 active torsions:
REMARK  status: ('A' for Active; 'I' for Inactive)
REMARK    1  A    between atoms: CB_3  and  CG1_2 
REMARK    2  A    between atoms: CA_4  and  CB_3 
REMARK    3  A    between atoms: CA_4  and  C_6 
REMARK    4  A    between atoms: CA_4  and  N_7 
REMARK       I    between atoms: C_6  and  N_8 
REMARK       I    between atoms: N_7  and  C_10 
REMARK    5  A    between atoms: N_8  and  CA_11 
REMARK    6  A    between atoms: CA_12  and  C_10 
REMARK    7  A    between atoms: CA_11  and  CB_15 
REMARK    8  A    between atoms: CA_11  and  C_14 
REMARK    9  A    between atoms: CA_12  and  N_17 
REMARK   10  A    between atoms: CA_12  and  CB_16 
REMARK       I    between atoms: C_14  and  N_18 
REMARK   11  A    between atoms: CB_15  and  CG_20 
REMARK   12  A    between atoms: CB_16  and  CG_21 
REMARK       I    between atoms: N_17  and  C_22 
REMARK   13  A    between atoms: C_22  and  CA_29 
REMARK   14  A    between atoms: CA_24  and  C_33 
REMARK   15  A    between atoms: CA_29  and  N_39 
REMARK   16  A    between atoms: CA_29  and  CB_38 
REMARK       I    between atoms: C_33  and  N_40 
REMARK       I    between atoms: N_39  and  C_45 
REMARK   17  A    between atoms: N_40  and  CA_46 
REMARK   18  A    between atoms: CZ_42  and  OH_47 
REMARK   19  A    between atoms: CA_48  and  C_45 
REMARK   20  A    between atoms: CA_46  and  CB_51 
REMARK   21  A    between atoms: CA_46  and  C_50 
REMARK   22  A    between atoms: CA_48  and  N_52 
REMARK   23  A    between atoms: CA_48  and  CB_53 
REMARK       I    between atoms: C_50  and  N_54 
REMARK   24  A    between atoms: CB_51  and  CG_56 
REMARK       I    between atoms: N_52  and  C_57 
REMARK   25  A    between atoms: CB_53  and  CG_58 
REMARK   26  A    between atoms: N_54  and  CA_59 
REMARK   27  A    between atoms: C_57  and  CA_62 
REMARK   28  A    between atoms: CG_58  and  CD_64 
REMARK   29  A    between atoms: CA_59  and  CB_66 
REMARK   30  A    between atoms: CA_59  and  C_65 
REMARK   31  A    between atoms: CA_62  and  N_70 
REMARK   32  A    between atoms: CA_62  and  CB_69 
REMARK   33  A    between atoms: CD_64  and  NE_71 
REMARK       I    between atoms: C_65  and  N_72 
REMARK   34  A    between atoms: CB_66  and  CG_74 
REMARK   35  A    between atoms: CB_69  and  CG_76 
REMARK   36  A    between atoms: N_72  and  CA_78 
REMARK   37  A    between atoms: CG_76  and  OD1_82 
REMARK       I    between atoms: CZ_77  and  NH1_83 
REMARK       I    between atoms: CZ_77  and  NH2_84 
REMARK   38  A    between atoms: CA_78  and  CB_86 
REMARK   39  A    between atoms: CA_78  and  C_85 
REMARK   40  A    between atoms: C_85  and  O_90 
REMARK   41  A    between atoms: CB_86  and  CG_91 
ROOT
ATOM      1  CA  ILE d   5      32.893   9.537  15.338  0.00  0.00     0.180 C 
ENDROOT
BRANCH   1   2
ATOM      2  C   ILE d   5      31.461   9.534  14.703  0.00  0.00     0.241 C 
ATOM      3  O   ILE d   5      30.545  10.191  15.193  0.00  0.00    -0.271 OA
ATOM      4  N   HIS d   6      31.265   8.667  13.657  0.00  0.00    -0.346 N 
ATOM      5  H   HIS d   6      32.068   8.220  13.251  0.00  0.00     0.163 HD
BRANCH   4   6
ATOM      6  CA  HIS d   6      30.169   8.730  12.677  0.00  0.00     0.182 C 
BRANCH   6   7
ATOM      7  CB  HIS d   6      30.889   8.290  11.339  0.00  0.00     0.087 C 
BRANCH   7   8
ATOM      8  CG  HIS d   6      32.368   8.211  11.193  0.00  0.00     0.010 C 
ATOM      9  CD2 HIS d   6      33.240   7.161  10.957  0.00  0.00     0.136 C 
ATOM     10  NE2 HIS d   6      34.505   7.646  10.738  0.00  0.00    -0.260 NA
ATOM     11  CE1 HIS d   6      34.384   8.946  10.836  0.00  0.00     0.180 C 
ATOM     12  ND1 HIS d   6      33.248   9.224  11.557  0.00  0.00    -0.256 NA
ATOM     13  HD1 HIS d   6      33.388   9.395  12.539  0.00  0.00     0.134 HD
ENDBRANCH   7   8
ENDBRANCH   6   7
BRANCH   6  14
ATOM     14  C   HIS d   6      29.086   7.685  13.234  0.00  0.00     0.243 C 
ATOM     15  O   HIS d   6      29.424   6.902  14.133  0.00  0.00    -0.271 OA
ATOM     16  N   PRO d   7      27.749   7.638  12.755  0.00  0.00    -0.337 N 
ATOM     17  CD  PRO d   7      27.002   8.824  12.332  0.00  0.00     0.127 C 
ATOM     18  CA  PRO d   7      26.773   6.700  13.427  0.00  0.00     0.179 C 
ATOM     19  CG  PRO d   7      25.883   8.961  13.369  0.00  0.00     0.022 C 
ATOM     20  CB  PRO d   7      25.972   7.716  14.255  0.00  0.00     0.037 C 
BRANCH  18  21
ATOM     21  C   PRO d   7      25.745   5.935  12.480  0.00  0.00     0.241 C 
ATOM     22  O   PRO d   7      24.552   6.261  12.467  0.00  0.00    -0.271 OA
ATOM     23  N   PHE d   8      26.060   4.920  11.592  0.00  0.00    -0.346 N 
ATOM     24  H   PHE d   8      25.170   4.629  11.201  0.00  0.00     0.163 HD
BRANCH  23  25
ATOM     25  CA  PHE d   8      27.111   3.851  11.539  0.00  0.00     0.180 C 
BRANCH  25  26
ATOM     26  CB  PHE d   8      28.584   4.458  11.508  0.00  0.00     0.073 C 
BRANCH  26  27
ATOM     27  CG  PHE d   8      29.241   5.033  10.237  0.00  0.00    -0.056 C 
ATOM     28  CD1 PHE d   8      30.483   4.570   9.800  0.00  0.00     0.007 C 
ATOM     29  CE1 PHE d   8      31.058   5.032   8.595  0.00  0.00     0.001 C 
ATOM     30  CZ  PHE d   8      30.442   6.026   7.831  0.00  0.00     0.000 C 
ATOM     31  CE2 PHE d   8      29.201   6.479   8.218  0.00  0.00     0.001 C 
ATOM     32  CD2 PHE d   8      28.598   5.917   9.342  0.00  0.00     0.007 C 
ENDBRANCH  26  27
ENDBRANCH  25  26
BRANCH  25  33
ATOM     33  C   PHE d   8      26.894   2.807  12.636  0.00  0.00     0.241 C 
ATOM     34  O   PHE d   8      27.670   2.747  13.577  0.00  0.00    -0.271 OA
ATOM     35  N   HIS d   9      25.909   1.874  12.599  0.00  0.00    -0.346 N 
ATOM     36  H   HIS d   9      25.970   1.376  13.474  0.00  0.00     0.163 HD
BRANCH  35  37
ATOM     37  CA  HIS d   9      24.661   1.718  11.828  0.00  0.00     0.182 C 
BRANCH  37  38
ATOM     38  CB  HIS d   9      24.610   1.652  10.278  0.00  0.00     0.093 C 
BRANCH  38  39
ATOM     39  CG  HIS d   9      25.371   0.561   9.659  0.00  0.00     0.030 C 
ATOM     40  CD2 HIS d   9      24.959  -0.664   9.224  0.00  0.00     0.143 C 
ATOM     41  NE2 HIS d   9      25.950  -1.301   8.536  0.00  0.00    -0.254 NA
ATOM     42  CE1 HIS d   9      26.992  -0.513   8.635  0.00  0.00     0.207 C 
ATOM     43  ND1 HIS d   9      26.728   0.549   9.453  0.00  0.00    -0.353 N 
ATOM     44  HD1 HIS d   9      27.411   1.202   9.810  0.00  0.00     0.166 HD
ENDBRANCH  38  39
ENDBRANCH  37  38
BRANCH  37  45
ATOM     45  C   HIS d   9      23.458   0.955  12.489  0.00  0.00     0.241 C 
ATOM     46  O   HIS d   9      23.040  -0.096  11.990  0.00  0.00    -0.271 OA
ATOM     47  N   LEU d  10      22.738   1.409  13.562  0.00  0.00    -0.345 N 
ATOM     48  H   LEU d  10      21.982   0.744  13.705  0.00  0.00     0.163 HD
BRANCH  47  49
ATOM     49  CA  LEU d  10      23.210   1.903  14.875  0.00  0.00     0.182 C 
BRANCH  49  50
ATOM     50  CB  LEU d  10      22.072   2.344  15.782  0.00  0.00     0.040 C 
BRANCH  50  51
ATOM     51  CG  LEU d  10      22.212   3.742  16.331  0.00  0.00    -0.020 C 
ATOM     52  CD1 LEU d  10      23.181   3.688  17.496  0.00  0.00     0.009 C 
ATOM     53  CD2 LEU d  10      22.552   4.697  15.200  0.00  0.00     0.009 C 
ENDBRANCH  50  51
ENDBRANCH  49  50
BRANCH  49  54
ATOM     54  C   LEU d  10      24.229   0.902  15.474  0.00  0.00     0.163 C 
ATOM     55  OXT LEU d  10      23.984  -0.264  15.779  0.00  0.00    -0.648 OA
BRANCH  54  56
ATOM     56  O   LEU d  10      25.455   1.442  15.634  0.00  0.00    -0.775 OA
ATOM     57  H   LEU d  10      25.506   1.929  16.479  0.00  0.00     0.167 HD
ENDBRANCH  54  56
ENDBRANCH  49  54
ENDBRANCH  47  49
ENDBRANCH  37  45
ENDBRANCH  35  37
ENDBRANCH  25  33
ENDBRANCH  23  25
ENDBRANCH  18  21
ENDBRANCH   6  14
ENDBRANCH   4   6
ENDBRANCH   1   2
BRANCH   1  58
ATOM     58  N   ILE d   5      33.327   8.124  15.366  0.00  0.00    -0.346 N 
ATOM     59  C   TYR d   4      33.896   7.508  16.466  0.00  0.00     0.241 C 
ATOM     60  O   TYR d   4      34.198   8.150  17.469  0.00  0.00    -0.271 OA
ATOM     61  H   ILE d   5      32.785   7.512  14.763  0.00  0.00     0.163 HD
BRANCH  59  62
ATOM     62  CA  TYR d   4      34.148   5.957  16.365  0.00  0.00     0.180 C 
BRANCH  62  63
ATOM     63  N   TYR d   4      35.056   5.631  15.210  0.00  0.00    -0.346 N 
ATOM     64  C   VAL d   3      34.520   5.264  13.977  0.00  0.00     0.241 C 
ATOM     65  O   VAL d   3      33.298   5.261  13.859  0.00  0.00    -0.271 OA
ATOM     66  H   TYR d   4      35.915   5.153  15.451  0.00  0.00     0.163 HD
BRANCH  64  67
ATOM     67  CA  VAL d   3      35.505   4.819  12.801  0.00  0.00     0.180 C 
BRANCH  67  68
ATOM     68  N   VAL d   3      37.015   4.819  12.955  0.00  0.00    -0.346 N 
ATOM     69  C   ARG d   2      38.134   5.363  12.403  0.00  0.00     0.241 C 
ATOM     70  O   ARG d   2      39.188   4.793  12.724  0.00  0.00    -0.271 OA
ATOM     71  H   VAL d   3      37.358   3.961  13.389  0.00  0.00     0.163 HD
BRANCH  69  72
ATOM     72  CA  ARG d   2      38.133   6.700  11.653  0.00  0.00     0.176 C 
BRANCH  72  73
ATOM     73  N   ARG d   2      37.447   6.544  10.364  0.00  0.00    -0.346 N 
ATOM     74  C   ASP d   1      38.002   5.893   9.289  0.00  0.00     0.252 C 
ATOM     75  O   ASP d   1      39.195   5.591   9.208  0.00  0.00    -0.271 OA
ATOM     76  H   ARG d   2      36.437   6.467  10.446  0.00  0.00     0.163 HD
BRANCH  74  77
ATOM     77  CA  ASP d   1      37.027   5.604   8.116  0.00  0.00     0.318 C 
BRANCH  77  78
ATOM     78  N   ASP d   1      35.640   5.642   8.661  0.00  0.00     0.092 N 
ATOM     79  H1  ASP d   1      35.310   6.604   8.711  0.00  0.00     0.313 HD
ATOM     80  H2  ASP d   1      35.697   5.344   9.646  0.00  0.00     0.313 HD
ENDBRANCH  77  78
BRANCH  77  81
ATOM     81  CB  ASP d   1      37.195   6.656   7.014  0.00  0.00     0.155 C 
BRANCH  81  82
ATOM     82  CG  ASP d   1      36.307   7.845   7.243  0.00  0.00     0.141 C 
ATOM     83  OD2 ASP d   1      36.477   8.738   8.055  0.00  0.00    -0.650 OA
BRANCH  82  84
ATOM     84  OD1 ASP d   1      35.282   7.891   6.370  0.00  0.00    -0.776 OA
ATOM     85  HD1 ASP d   1      34.484   8.019   6.921  0.00  0.00     0.167 HD
ENDBRANCH  82  84
ENDBRANCH  81  82
ENDBRANCH  77  81
ENDBRANCH  74  77
ENDBRANCH  72  73
BRANCH  72  86
ATOM     86  CB  ARG d   2      37.866   7.917  12.562  0.00  0.00     0.037 C 
BRANCH  86  87
ATOM     87  CG  ARG d   2      39.004   8.677  13.262  0.00  0.00     0.024 C 
BRANCH  87  88
ATOM     88  CD  ARG d   2      39.636   7.988  14.467  0.00  0.00     0.152 C 
BRANCH  88  89
ATOM     89  NE  ARG d   2      38.838   8.239  15.655  0.00  0.00    -0.268 NA
ATOM     90  CZ  ARG d   2      38.112   7.366  16.204  0.00  0.00     0.143 C 
ATOM     91  NH1 ARG d   2      37.393   7.721  17.282  0.00  0.00    -0.278 NA
ATOM     92  NH2 ARG d   2      37.888   6.073  15.861  0.00  0.00    -0.278 NA
ATOM     93 1HH1 ARG d   2      37.733   8.623  17.645  0.00  0.00     0.126 HD
ATOM     94 2HH1 ARG d   2      37.232   7.029  17.991  0.00  0.00     0.126 HD
ATOM     95 1HH2 ARG d   2      38.556   5.675  15.208  0.00  0.00     0.126 HD
ATOM     96 2HH2 ARG d   2      37.694   5.437  16.636  0.00  0.00     0.126 HD
ENDBRANCH  88  89
ENDBRANCH  87  88
ENDBRANCH  86  87
ENDBRANCH  72  86
ENDBRANCH  69  72
ENDBRANCH  67  68
BRANCH  67  97
ATOM     97  CB  VAL d   3      35.213   3.339  12.363  0.00  0.00     0.009 C 
ATOM     98  CG1 VAL d   3      34.967   2.443  13.586  0.00  0.00     0.012 C 
ATOM     99  CG2 VAL d   3      34.130   3.141  11.306  0.00  0.00     0.012 C 
ENDBRANCH  67  97
ENDBRANCH  64  67
ENDBRANCH  62  63
BRANCH  62 100
ATOM    100  CB  TYR d   4      34.685   5.343  17.699  0.00  0.00     0.073 C 
BRANCH 100 101
ATOM    101  CG  TYR d   4      35.183   3.901  17.692  0.00  0.00    -0.056 A 
ATOM    102  CD1 TYR d   4      34.359   2.842  17.271  0.00  0.00     0.010 A 
ATOM    103  CE1 TYR d   4      34.842   1.527  17.209  0.00  0.00     0.037 A 
ATOM    104  CZ  TYR d   4      36.144   1.245  17.581  0.00  0.00     0.065 A 
ATOM    105  CE2 TYR d   4      36.990   2.266  17.979  0.00  0.00     0.037 A 
ATOM    106  CD2 TYR d   4      36.506   3.580  18.003  0.00  0.00     0.010 A 
BRANCH 104 107
ATOM    107  OH  TYR d   4      36.591  -0.037  17.528  0.00  0.00    -0.361 OA
ATOM    108  HH  TYR d   4      36.934  -0.243  18.416  0.00  0.00     0.217 HD
ENDBRANCH 104 107
ENDBRANCH 100 101
ENDBRANCH  62 100
ENDBRANCH  59  62
ENDBRANCH   1  58
BRANCH   1 109
ATOM    109  CB  ILE d   5      33.880  10.624  14.758  0.00  0.00     0.013 C 
ATOM    110  CG2 ILE d   5      33.926  11.938  15.551  0.00  0.00     0.012 C 
BRANCH 109 111
ATOM    111  CG1 ILE d   5      35.289  10.012  14.519  0.00  0.00     0.002 C 
ATOM    112  CD1 ILE d   5      36.448  10.683  15.246  0.00  0.00     0.005 C 
ENDBRANCH 109 111
ENDBRANCH   1 109
TORSDOF 41
ENDMDL
MODEL 8
REMARK VINA RESULT:      -6.0      2.918      7.713
REMARK WARNING: 32 MAX_TORS EXCEEDED!!!
REMARK  41 active torsions:
REMARK  status: ('A' for Active; 'I' for Inactive)
REMARK    1  A    between atoms: CB_3  and  CG1_2 
REMARK    2  A    between atoms: CA_4  and  CB_3 
REMARK    3  A    between atoms: CA_4  and  C_6 
REMARK    4  A    between atoms: CA_4  and  N_7 
REMARK       I    between atoms: C_6  and  N_8 
REMARK       I    between atoms: N_7  and  C_10 
REMARK    5  A    between atoms: N_8  and  CA_11 
REMARK    6  A    between atoms: CA_12  and  C_10 
REMARK    7  A    between atoms: CA_11  and  CB_15 
REMARK    8  A    between atoms: CA_11  and  C_14 
REMARK    9  A    between atoms: CA_12  and  N_17 
REMARK   10  A    between atoms: CA_12  and  CB_16 
REMARK       I    between atoms: C_14  and  N_18 
REMARK   11  A    between atoms: CB_15  and  CG_20 
REMARK   12  A    between atoms: CB_16  and  CG_21 
REMARK       I    between atoms: N_17  and  C_22 
REMARK   13  A    between atoms: C_22  and  CA_29 
REMARK   14  A    between atoms: CA_24  and  C_33 
REMARK   15  A    between atoms: CA_29  and  N_39 
REMARK   16  A    between atoms: CA_29  and  CB_38 
REMARK       I    between atoms: C_33  and  N_40 
REMARK       I    between atoms: N_39  and  C_45 
REMARK   17  A    between atoms: N_40  and  CA_46 
REMARK   18  A    between atoms: CZ_42  and  OH_47 
REMARK   19  A    between atoms: CA_48  and  C_45 
REMARK   20  A    between atoms: CA_46  and  CB_51 
REMARK   21  A    between atoms: CA_46  and  C_50 
REMARK   22  A    between atoms: CA_48  and  N_52 
REMARK   23  A    between atoms: CA_48  and  CB_53 
REMARK       I    between atoms: C_50  and  N_54 
REMARK   24  A    between atoms: CB_51  and  CG_56 
REMARK       I    between atoms: N_52  and  C_57 
REMARK   25  A    between atoms: CB_53  and  CG_58 
REMARK   26  A    between atoms: N_54  and  CA_59 
REMARK   27  A    between atoms: C_57  and  CA_62 
REMARK   28  A    between atoms: CG_58  and  CD_64 
REMARK   29  A    between atoms: CA_59  and  CB_66 
REMARK   30  A    between atoms: CA_59  and  C_65 
REMARK   31  A    between atoms: CA_62  and  N_70 
REMARK   32  A    between atoms: CA_62  and  CB_69 
REMARK   33  A    between atoms: CD_64  and  NE_71 
REMARK       I    between atoms: C_65  and  N_72 
REMARK   34  A    between atoms: CB_66  and  CG_74 
REMARK   35  A    between atoms: CB_69  and  CG_76 
REMARK   36  A    between atoms: N_72  and  CA_78 
REMARK   37  A    between atoms: CG_76  and  OD1_82 
REMARK       I    between atoms: CZ_77  and  NH1_83 
REMARK       I    between atoms: CZ_77  and  NH2_84 
REMARK   38  A    between atoms: CA_78  and  CB_86 
REMARK   39  A    between atoms: CA_78  and  C_85 
REMARK   40  A    between atoms: C_85  and  O_90 
REMARK   41  A    between atoms: CB_86  and  CG_91 
ROOT
ATOM      1  CA  ILE d   5      25.959   8.915  12.954  0.00  0.00     0.180 C 
ENDROOT
BRANCH   1   2
ATOM      2  C   ILE d   5      24.911   8.124  13.808  0.00  0.00     0.241 C 
ATOM      3  O   ILE d   5      24.231   8.687  14.664  0.00  0.00    -0.271 OA
ATOM      4  N   HIS d   6      24.891   6.762  13.633  0.00  0.00    -0.346 N 
ATOM      5  H   HIS d   6      25.408   6.372  12.866  0.00  0.00     0.163 HD
BRANCH   4   6
ATOM      6  CA  HIS d   6      23.796   5.858  14.018  0.00  0.00     0.182 C 
BRANCH   6   7
ATOM      7  CB  HIS d   6      22.762   6.061  12.837  0.00  0.00     0.087 C 
BRANCH   7   8
ATOM      8  CG  HIS d   6      21.288   5.967  13.016  0.00  0.00     0.010 C 
ATOM      9  CD2 HIS d   6      20.463   6.053  14.126  0.00  0.00     0.136 C 
ATOM     10  NE2 HIS d   6      19.150   6.070  13.731  0.00  0.00    -0.260 NA
ATOM     11  CE1 HIS d   6      19.195   6.003  12.423  0.00  0.00     0.180 C 
ATOM     12  ND1 HIS d   6      20.410   5.476  12.058  0.00  0.00    -0.256 NA
ATOM     13  HD1 HIS d   6      20.416   4.485  11.878  0.00  0.00     0.134 HD
ENDBRANCH   7   8
ENDBRANCH   6   7
BRANCH   6  14
ATOM     14  C   HIS d   6      24.484   4.409  14.069  0.00  0.00     0.243 C 
ATOM     15  O   HIS d   6      25.681   4.310  13.763  0.00  0.00    -0.271 OA
ATOM     16  N   PRO d   7      23.784   3.242  14.475  0.00  0.00    -0.337 N 
ATOM     17  CD  PRO d   7      22.742   3.242  15.503  0.00  0.00     0.127 C 
ATOM     18  CA  PRO d   7      24.552   1.946  14.604  0.00  0.00     0.179 C 
ATOM     19  CG  PRO d   7      23.342   2.432  16.655  0.00  0.00     0.022 C 
ATOM     20  CB  PRO d   7      24.667   1.871  16.134  0.00  0.00     0.037 C 
BRANCH  18  21
ATOM     21  C   PRO d   7      23.814   0.623  14.113  0.00  0.00     0.241 C 
ATOM     22  O   PRO d   7      23.880  -0.412  14.787  0.00  0.00    -0.271 OA
ATOM     23  N   PHE d   8      23.031   0.503  12.976  0.00  0.00    -0.346 N 
ATOM     24  H   PHE d   8      22.770  -0.476  12.939  0.00  0.00     0.163 HD
BRANCH  23  25
ATOM     25  CA  PHE d   8      23.007   1.176  11.635  0.00  0.00     0.180 C 
BRANCH  25  26
ATOM     26  CB  PHE d   8      22.873   0.131  10.441  0.00  0.00     0.073 C 
BRANCH  26  27
ATOM     27  CG  PHE d   8      24.081  -0.434   9.665  0.00  0.00    -0.056 C 
ATOM     28  CD1 PHE d   8      23.936  -1.529   8.812  0.00  0.00     0.007 C 
ATOM     29  CE1 PHE d   8      25.016  -2.006   8.036  0.00  0.00     0.001 C 
ATOM     30  CZ  PHE d   8      26.291  -1.448   8.149  0.00  0.00     0.000 C 
ATOM     31  CE2 PHE d   8      26.460  -0.346   8.957  0.00  0.00     0.001 C 
ATOM     32  CD2 PHE d   8      25.351   0.183   9.616  0.00  0.00     0.007 C 
ENDBRANCH  26  27
ENDBRANCH  25  26
BRANCH  25  33
ATOM     33  C   PHE d   8      21.966   2.296  11.598  0.00  0.00     0.241 C 
ATOM     34  O   PHE d   8      21.024   2.274  12.375  0.00  0.00    -0.271 OA
ATOM     35  N   HIS d   9      21.982   3.306  10.691  0.00  0.00    -0.346 N 
ATOM     36  H   HIS d   9      21.225   3.920  10.950  0.00  0.00     0.163 HD
BRANCH  35  37
ATOM     37  CA  HIS d   9      22.996   3.850   9.767  0.00  0.00     0.182 C 
BRANCH  37  38
ATOM     38  CB  HIS d   9      24.514   3.550   9.883  0.00  0.00     0.093 C 
BRANCH  38  39
ATOM     39  CG  HIS d   9      25.413   4.654   9.528  0.00  0.00     0.030 C 
ATOM     40  CD2 HIS d   9      26.228   4.813   8.447  0.00  0.00     0.143 C 
ATOM     41  NE2 HIS d   9      26.752   6.072   8.406  0.00  0.00    -0.254 NA
ATOM     42  CE1 HIS d   9      26.337   6.648   9.507  0.00  0.00     0.207 C 
ATOM     43  ND1 HIS d   9      25.660   5.763  10.298  0.00  0.00    -0.353 N 
ATOM     44  HD1 HIS d   9      25.384   5.922  11.257  0.00  0.00     0.166 HD
ENDBRANCH  38  39
ENDBRANCH  37  38
BRANCH  37  45
ATOM     45  C   HIS d   9      22.571   4.177   8.291  0.00  0.00     0.241 C 
ATOM     46  O   HIS d   9      22.541   5.349   7.899  0.00  0.00    -0.271 OA
ATOM     47  N   LEU d  10      22.127   3.253   7.383  0.00  0.00    -0.345 N 
ATOM     48  H   LEU d  10      21.855   3.774   6.552  0.00  0.00     0.163 HD
BRANCH  47  49
ATOM     49  CA  LEU d  10      22.727   1.963   6.976  0.00  0.00     0.182 C 
BRANCH  49  50
ATOM     50  CB  LEU d  10      21.741   1.054   6.259  0.00  0.00     0.040 C 
BRANCH  50  51
ATOM     51  CG  LEU d  10      21.311  -0.155   7.050  0.00  0.00    -0.020 C 
ATOM     52  CD1 LEU d  10      20.068   0.222   7.834  0.00  0.00     0.009 C 
ATOM     53  CD2 LEU d  10      21.199  -1.353   6.124  0.00  0.00     0.009 C 
ENDBRANCH  50  51
ENDBRANCH  49  50
BRANCH  49  54
ATOM     54  C   LEU d  10      24.081   2.216   6.267  0.00  0.00     0.163 C 
ATOM     55  OXT LEU d  10      25.153   1.698   6.578  0.00  0.00    -0.648 OA
BRANCH  54  56
ATOM     56  O   LEU d  10      23.976   3.084   5.240  0.00  0.00    -0.775 OA
ATOM     57  H   LEU d  10      24.850   3.237   4.831  0.00  0.00     0.167 HD
ENDBRANCH  54  56
ENDBRANCH  49  54
ENDBRANCH  47  49
ENDBRANCH  37  45
ENDBRANCH  35  37
ENDBRANCH  25  33
ENDBRANCH  23  25
ENDBRANCH  18  21
ENDBRANCH   6  14
ENDBRANCH   4   6
ENDBRANCH   1   2
BRANCH   1  58
ATOM     58  N   ILE d   5      27.066   7.970  12.694  0.00  0.00    -0.346 N 
ATOM     59  C   TYR d   4      28.245   7.938  13.416  0.00  0.00     0.241 C 
ATOM     60  O   TYR d   4      28.500   8.798  14.255  0.00  0.00    -0.271 OA
ATOM     61  H   ILE d   5      26.767   7.074  12.319  0.00  0.00     0.163 HD
BRANCH  59  62
ATOM     62  CA  TYR d   4      29.243   6.761  13.103  0.00  0.00     0.180 C 
BRANCH  62  63
ATOM     63  N   TYR d   4      30.313   6.665  14.157  0.00  0.00    -0.346 N 
ATOM     64  C   VAL d   3      31.650   6.524  13.789  0.00  0.00     0.241 C 
ATOM     65  O   VAL d   3      31.920   6.527  12.592  0.00  0.00    -0.271 OA
ATOM     66  H   TYR d   4      30.055   6.161  14.996  0.00  0.00     0.163 HD
BRANCH  64  67
ATOM     67  CA  VAL d   3      32.752   6.315  14.926  0.00  0.00     0.180 C 
BRANCH  67  68
ATOM     68  N   VAL d   3      34.232   6.187  14.618  0.00  0.00    -0.346 N 
ATOM     69  C   ARG d   2      35.275   5.325  14.777  0.00  0.00     0.241 C 
ATOM     70  O   ARG d   2      36.389   5.839  14.595  0.00  0.00    -0.271 OA
ATOM     71  H   VAL d   3      34.687   7.096  14.528  0.00  0.00     0.163 HD
BRANCH  69  72
ATOM     72  CA  ARG d   2      35.094   3.811  14.923  0.00  0.00     0.176 C 
BRANCH  72  73
ATOM     73  N   ARG d   2      36.207   3.113  14.268  0.00  0.00    -0.346 N 
ATOM     74  C   ASP d   1      36.041   1.996  13.487  0.00  0.00     0.252 C 
ATOM     75  O   ASP d   1      35.003   1.329  13.450  0.00  0.00    -0.271 OA
ATOM     76  H   ARG d   2      36.968   3.728  13.991  0.00  0.00     0.163 HD
BRANCH  74  77
ATOM     77  CA  ASP d   1      37.291   1.565  12.674  0.00  0.00     0.318 C 
BRANCH  77  78
ATOM     78  N   ASP d   1      37.638   0.174  13.081  0.00  0.00     0.092 N 
ATOM     79  H1  ASP d   1      38.624   0.118  13.328  0.00  0.00     0.313 HD
ATOM     80  H2  ASP d   1      37.556  -0.414  12.239  0.00  0.00     0.313 HD
ENDBRANCH  77  78
BRANCH  77  81
ATOM     81  CB  ASP d   1      36.993   1.622  11.171  0.00  0.00     0.155 C 
BRANCH  81  82
ATOM     82  CG  ASP d   1      36.901   0.247  10.572  0.00  0.00     0.141 C 
ATOM     83  OD2 ASP d   1      37.819  -0.416  10.122  0.00  0.00    -0.650 OA
BRANCH  82  84
ATOM     84  OD1 ASP d   1      35.655  -0.260  10.649  0.00  0.00    -0.776 OA
ATOM     85  HD1 ASP d   1      35.775  -1.181  10.955  0.00  0.00     0.167 HD
ENDBRANCH  82  84
ENDBRANCH  81  82
ENDBRANCH  77  81
ENDBRANCH  74  77
ENDBRANCH  72  73
BRANCH  72  86
ATOM     86  CB  ARG d   2      34.585   3.382  16.314  0.00  0.00     0.037 C 
BRANCH  86  87
ATOM     87  CG  ARG d   2      35.294   3.808  17.609  0.00  0.00     0.024 C 
BRANCH  87  88
ATOM     88  CD  ARG d   2      36.696   3.251  17.827  0.00  0.00     0.152 C 
BRANCH  88  89
ATOM     89  NE  ARG d   2      37.525   4.242  18.494  0.00  0.00    -0.268 NA
ATOM     90  CZ  ARG d   2      38.252   5.069  17.879  0.00  0.00     0.143 C 
ATOM     91  NH1 ARG d   2      39.001   5.918  18.600  0.00  0.00    -0.278 NA
ATOM     92  NH2 ARG d   2      38.452   5.238  16.548  0.00  0.00    -0.278 NA
ATOM     93 1HH1 ARG d   2      38.682   5.918  19.580  0.00  0.00     0.126 HD
ATOM     94 2HH1 ARG d   2      39.170   6.834  18.226  0.00  0.00     0.126 HD
ATOM     95 1HH2 ARG d   2      37.764   4.795  15.946  0.00  0.00     0.126 HD
ATOM     96 2HH2 ARG d   2      38.656   6.192  16.249  0.00  0.00     0.126 HD
ENDBRANCH  88  89
ENDBRANCH  87  88
ENDBRANCH  86  87
ENDBRANCH  72  86
ENDBRANCH  69  72
ENDBRANCH  67  68
BRANCH  67  97
ATOM     97  CB  VAL d   3      32.725   7.508  15.949  0.00  0.00     0.009 C 
ATOM     98  CG1 VAL d   3      33.429   7.123  17.259  0.00  0.00     0.012 C 
ATOM     99  CG2 VAL d   3      33.213   8.859  15.435  0.00  0.00     0.012 C 
ENDBRANCH  67  97
ENDBRANCH  64  67
ENDBRANCH  62  63
BRANCH  62 100
ATOM    100  CB  TYR d   4      28.517   5.390  12.904  0.00  0.00     0.073 C 
BRANCH 100 101
ATOM    101  CG  TYR d   4      28.841   4.566  11.662  0.00  0.00    -0.056 A 
ATOM    102  CD1 TYR d   4      28.273   3.296  11.454  0.00  0.00     0.010 A 
ATOM    103  CE1 TYR d   4      28.528   2.570  10.281  0.00  0.00     0.037 A 
ATOM    104  CZ  TYR d   4      29.365   3.088   9.309  0.00  0.00     0.065 A 
ATOM    105  CE2 TYR d   4      29.924   4.345   9.470  0.00  0.00     0.037 A 
ATOM    106  CD2 TYR d   4      29.634   5.075  10.630  0.00  0.00     0.010 A 
BRANCH 104 107
ATOM    107  OH  TYR d   4      29.611   2.365   8.185  0.00  0.00    -0.361 OA
ATOM    108  HH  TYR d   4      28.994   2.695   7.508  0.00  0.00     0.217 HD
ENDBRANCH 104 107
ENDBRANCH 100 101
ENDBRANCH  62 100
ENDBRANCH  59  62
ENDBRANCH   1  58
BRANCH   1 109
ATOM    109  CB  ILE d   5      25.356   9.730  11.743  0.00  0.00     0.013 C 
ATOM    110  CG2 ILE d   5      24.017   9.197  11.215  0.00  0.00     0.012 C 
BRANCH 109 111
ATOM    111  CG1 ILE d   5      25.316  11.249  12.072  0.00  0.00     0.002 C 
ATOM    112  CD1 ILE d   5      24.134  11.728  12.904  0.00  0.00     0.005 C 
ENDBRANCH 109 111
ENDBRANCH   1 109
TORSDOF 41
ENDMDL
MODEL 9
REMARK VINA RESULT:      -6.0      2.417     11.398
REMARK WARNING: 32 MAX_TORS EXCEEDED!!!
REMARK  41 active torsions:
REMARK  status: ('A' for Active; 'I' for Inactive)
REMARK    1  A    between atoms: CB_3  and  CG1_2 
REMARK    2  A    between atoms: CA_4  and  CB_3 
REMARK    3  A    between atoms: CA_4  and  C_6 
REMARK    4  A    between atoms: CA_4  and  N_7 
REMARK       I    between atoms: C_6  and  N_8 
REMARK       I    between atoms: N_7  and  C_10 
REMARK    5  A    between atoms: N_8  and  CA_11 
REMARK    6  A    between atoms: CA_12  and  C_10 
REMARK    7  A    between atoms: CA_11  and  CB_15 
REMARK    8  A    between atoms: CA_11  and  C_14 
REMARK    9  A    between atoms: CA_12  and  N_17 
REMARK   10  A    between atoms: CA_12  and  CB_16 
REMARK       I    between atoms: C_14  and  N_18 
REMARK   11  A    between atoms: CB_15  and  CG_20 
REMARK   12  A    between atoms: CB_16  and  CG_21 
REMARK       I    between atoms: N_17  and  C_22 
REMARK   13  A    between atoms: C_22  and  CA_29 
REMARK   14  A    between atoms: CA_24  and  C_33 
REMARK   15  A    between atoms: CA_29  and  N_39 
REMARK   16  A    between atoms: CA_29  and  CB_38 
REMARK       I    between atoms: C_33  and  N_40 
REMARK       I    between atoms: N_39  and  C_45 
REMARK   17  A    between atoms: N_40  and  CA_46 
REMARK   18  A    between atoms: CZ_42  and  OH_47 
REMARK   19  A    between atoms: CA_48  and  C_45 
REMARK   20  A    between atoms: CA_46  and  CB_51 
REMARK   21  A    between atoms: CA_46  and  C_50 
REMARK   22  A    between atoms: CA_48  and  N_52 
REMARK   23  A    between atoms: CA_48  and  CB_53 
REMARK       I    between atoms: C_50  and  N_54 
REMARK   24  A    between atoms: CB_51  and  CG_56 
REMARK       I    between atoms: N_52  and  C_57 
REMARK   25  A    between atoms: CB_53  and  CG_58 
REMARK   26  A    between atoms: N_54  and  CA_59 
REMARK   27  A    between atoms: C_57  and  CA_62 
REMARK   28  A    between atoms: CG_58  and  CD_64 
REMARK   29  A    between atoms: CA_59  and  CB_66 
REMARK   30  A    between atoms: CA_59  and  C_65 
REMARK   31  A    between atoms: CA_62  and  N_70 
REMARK   32  A    between atoms: CA_62  and  CB_69 
REMARK   33  A    between atoms: CD_64  and  NE_71 
REMARK       I    between atoms: C_65  and  N_72 
REMARK   34  A    between atoms: CB_66  and  CG_74 
REMARK   35  A    between atoms: CB_69  and  CG_76 
REMARK   36  A    between atoms: N_72  and  CA_78 
REMARK   37  A    between atoms: CG_76  and  OD1_82 
REMARK       I    between atoms: CZ_77  and  NH1_83 
REMARK       I    between atoms: CZ_77  and  NH2_84 
REMARK   38  A    between atoms: CA_78  and  CB_86 
REMARK   39  A    between atoms: CA_78  and  C_85 
REMARK   40  A    between atoms: C_85  and  O_90 
REMARK   41  A    between atoms: CB_86  and  CG_91 
ROOT
ATOM      1  CA  ILE d   5      28.692  11.275  11.759  0.00  0.00     0.180 C 
ENDROOT
BRANCH   1   2
ATOM      2  C   ILE d   5      30.246  11.277  11.960  0.00  0.00     0.241 C 
ATOM      3  O   ILE d   5      31.013  11.272  10.999  0.00  0.00    -0.271 OA
ATOM      4  N   HIS d   6      30.689  11.158  13.255  0.00  0.00    -0.346 N 
ATOM      5  H   HIS d   6      30.019  11.248  13.998  0.00  0.00     0.163 HD
BRANCH   4   6
ATOM      6  CA  HIS d   6      32.036  11.495  13.740  0.00  0.00     0.182 C 
BRANCH   6   7
ATOM      7  CB  HIS d   6      31.726  12.518  14.906  0.00  0.00     0.087 C 
BRANCH   7   8
ATOM      8  CG  HIS d   6      32.599  13.680  15.227  0.00  0.00     0.010 C 
ATOM      9  CD2 HIS d   6      33.704  14.233  14.602  0.00  0.00     0.136 C 
ATOM     10  NE2 HIS d   6      34.044  15.413  15.214  0.00  0.00    -0.260 NA
ATOM     11  CE1 HIS d   6      33.162  15.558  16.171  0.00  0.00     0.180 C 
ATOM     12  ND1 HIS d   6      32.626  14.326  16.458  0.00  0.00    -0.256 NA
ATOM     13  HD1 HIS d   6      33.046  13.840  17.234  0.00  0.00     0.134 HD
ENDBRANCH   7   8
ENDBRANCH   6   7
BRANCH   6  14
ATOM     14  C   HIS d   6      32.641  10.088  14.221  0.00  0.00     0.243 C 
ATOM     15  O   HIS d   6      31.979   9.059  14.026  0.00  0.00    -0.271 OA
ATOM     16  N   PRO d   7      33.916   9.973  14.838  0.00  0.00    -0.337 N 
ATOM     17  CD  PRO d   7      35.059  10.820  14.493  0.00  0.00     0.127 C 
ATOM     18  CA  PRO d   7      34.448   8.592  15.145  0.00  0.00     0.179 C 
ATOM     19  CG  PRO d   7      36.064   9.861  13.847  0.00  0.00     0.022 C 
ATOM     20  CB  PRO d   7      35.477   8.458  14.012  0.00  0.00     0.037 C 
BRANCH  18  21
ATOM     21  C   PRO d   7      35.226   8.414  16.524  0.00  0.00     0.241 C 
ATOM     22  O   PRO d   7      35.718   9.397  17.091  0.00  0.00    -0.271 OA
ATOM     23  N   PHE d   8      35.389   7.227  17.218  0.00  0.00    -0.346 N 
ATOM     24  H   PHE d   8      35.975   7.464  18.011  0.00  0.00     0.163 HD
BRANCH  23  25
ATOM     25  CA  PHE d   8      35.472   5.779  16.830  0.00  0.00     0.180 C 
BRANCH  25  26
ATOM     26  CB  PHE d   8      35.891   4.852  18.055  0.00  0.00     0.073 C 
BRANCH  26  27
ATOM     27  CG  PHE d   8      35.958   3.313  17.973  0.00  0.00    -0.056 C 
ATOM     28  CD1 PHE d   8      37.162   2.636  18.176  0.00  0.00     0.007 C 
ATOM     29  CE1 PHE d   8      37.220   1.225  18.183  0.00  0.00     0.001 C 
ATOM     30  CZ  PHE d   8      36.090   0.451  17.911  0.00  0.00     0.000 C 
ATOM     31  CE2 PHE d   8      34.881   1.087  17.740  0.00  0.00     0.001 C 
ATOM     32  CD2 PHE d   8      34.826   2.474  17.862  0.00  0.00     0.007 C 
ENDBRANCH  26  27
ENDBRANCH  25  26
BRANCH  25  33
ATOM     33  C   PHE d   8      34.197   5.325  16.116  0.00  0.00     0.241 C 
ATOM     34  O   PHE d   8      33.120   5.804  16.437  0.00  0.00    -0.271 OA
ATOM     35  N   HIS d   9      34.173   4.351  15.171  0.00  0.00    -0.346 N 
ATOM     36  H   HIS d   9      33.222   4.316  14.838  0.00  0.00     0.163 HD
BRANCH  35  37
ATOM     37  CA  HIS d   9      35.197   3.694  14.336  0.00  0.00     0.182 C 
BRANCH  37  38
ATOM     38  CB  HIS d   9      35.129   2.206  13.903  0.00  0.00     0.093 C 
BRANCH  38  39
ATOM     39  CG  HIS d   9      36.284   1.378  14.271  0.00  0.00     0.030 C 
ATOM     40  CD2 HIS d   9      36.400   0.024  14.370  0.00  0.00     0.143 C 
ATOM     41  NE2 HIS d   9      37.701  -0.347  14.556  0.00  0.00    -0.254 NA
ATOM     42  CE1 HIS d   9      38.360   0.780  14.667  0.00  0.00     0.207 C 
ATOM     43  ND1 HIS d   9      37.510   1.849  14.668  0.00  0.00    -0.353 N 
ATOM     44  HD1 HIS d   9      37.760   2.800  14.900  0.00  0.00     0.166 HD
ENDBRANCH  38  39
ENDBRANCH  37  38
BRANCH  37  45
ATOM     45  C   HIS d   9      36.009   4.568  13.314  0.00  0.00     0.241 C 
ATOM     46  O   HIS d   9      37.235   4.673  13.425  0.00  0.00    -0.271 OA
ATOM     47  N   LEU d  10      35.452   5.329  12.321  0.00  0.00    -0.345 N 
ATOM     48  H   LEU d  10      36.217   5.837  11.883  0.00  0.00     0.163 HD
BRANCH  47  49
ATOM     49  CA  LEU d  10      34.459   4.956  11.289  0.00  0.00     0.182 C 
BRANCH  49  50
ATOM     50  CB  LEU d  10      33.703   6.155  10.737  0.00  0.00     0.040 C 
BRANCH  50  51
ATOM     51  CG  LEU d  10      32.257   6.233  11.156  0.00  0.00    -0.020 C 
ATOM     52  CD1 LEU d  10      32.170   5.789  12.604  0.00  0.00     0.009 C 
ATOM     53  CD2 LEU d  10      31.709   7.611  10.829  0.00  0.00     0.009 C 
ENDBRANCH  50  51
ENDBRANCH  49  50
BRANCH  49  54
ATOM     54  C   LEU d  10      35.114   4.010  10.251  0.00  0.00     0.163 C 
ATOM     55  OXT LEU d  10      36.263   4.111   9.824  0.00  0.00    -0.648 OA
BRANCH  54  56
ATOM     56  O   LEU d  10      34.284   3.027   9.848  0.00  0.00    -0.775 OA
ATOM     57  H   LEU d  10      34.540   2.176  10.253  0.00  0.00     0.167 HD
ENDBRANCH  54  56
ENDBRANCH  49  54
ENDBRANCH  47  49
ENDBRANCH  37  45
ENDBRANCH  35  37
ENDBRANCH  25  33
ENDBRANCH  23  25
ENDBRANCH  18  21
ENDBRANCH   6  14
ENDBRANCH   4   6
ENDBRANCH   1   2
BRANCH   1  58
ATOM     58  N   ILE d   5      28.182  10.138  12.555  0.00  0.00    -0.346 N 
ATOM     59  C   TYR d   4      28.115   8.835  12.093  0.00  0.00     0.241 C 
ATOM     60  O   TYR d   4      28.363   8.562  10.921  0.00  0.00    -0.271 OA
ATOM     61  H   ILE d   5      28.330  10.232  13.555  0.00  0.00     0.163 HD
BRANCH  59  62
ATOM     62  CA  TYR d   4      27.695   7.730  13.133  0.00  0.00     0.180 C 
BRANCH  62  63
ATOM     63  N   TYR d   4      26.300   7.234  12.861  0.00  0.00    -0.346 N 
ATOM     64  C   VAL d   3      25.249   7.600  13.700  0.00  0.00     0.241 C 
ATOM     65  O   VAL d   3      25.493   8.366  14.627  0.00  0.00    -0.271 OA
ATOM     66  H   TYR d   4      26.235   6.293  12.495  0.00  0.00     0.163 HD
BRANCH  64  67
ATOM     67  CA  VAL d   3      23.801   6.973  13.451  0.00  0.00     0.180 C 
BRANCH  67  68
ATOM     68  N   VAL d   3      22.986   6.332  14.558  0.00  0.00    -0.346 N 
ATOM     69  C   ARG d   2      22.568   5.111  14.993  0.00  0.00     0.241 C 
ATOM     70  O   ARG d   2      21.643   5.156  15.818  0.00  0.00    -0.271 OA
ATOM     71  H   VAL d   3      22.290   6.972  14.945  0.00  0.00     0.163 HD
BRANCH  69  72
ATOM     72  CA  ARG d   2      23.320   3.812  14.689  0.00  0.00     0.176 C 
BRANCH  72  73
ATOM     73  N   ARG d   2      22.937   3.316  13.361  0.00  0.00    -0.346 N 
ATOM     74  C   ASP d   1      23.637   3.609  12.216  0.00  0.00     0.252 C 
ATOM     75  O   ASP d   1      24.494   4.493  12.140  0.00  0.00    -0.271 OA
ATOM     76  H   ARG d   2      22.496   2.400  13.379  0.00  0.00     0.163 HD
BRANCH  74  77
ATOM     77  CA  ASP d   1      23.234   2.783  10.965  0.00  0.00     0.318 C 
BRANCH  77  78
ATOM     78  N   ASP d   1      24.475   2.505  10.188  0.00  0.00     0.092 N 
ATOM     79  H1  ASP d   1      24.237   2.149   9.264  0.00  0.00     0.313 HD
ATOM     80  H2  ASP d   1      24.946   1.712  10.649  0.00  0.00     0.313 HD
ENDBRANCH  77  78
BRANCH  77  81
ATOM     81  CB  ASP d   1      22.565   1.470  11.387  0.00  0.00     0.155 C 
BRANCH  81  82
ATOM     82  CG  ASP d   1      23.552   0.340  11.452  0.00  0.00     0.141 C 
ATOM     83  OD2 ASP d   1      23.730  -0.523  10.610  0.00  0.00    -0.650 OA
BRANCH  82  84
ATOM     84  OD1 ASP d   1      24.330   0.405  12.549  0.00  0.00    -0.776 OA
ATOM     85  HD1 ASP d   1      24.658  -0.507  12.682  0.00  0.00     0.167 HD
ENDBRANCH  82  84
ENDBRANCH  81  82
ENDBRANCH  77  81
ENDBRANCH  74  77
ENDBRANCH  72  73
BRANCH  72  86
ATOM     86  CB  ARG d   2      24.794   3.831  15.143  0.00  0.00     0.037 C 
BRANCH  86  87
ATOM     87  CG  ARG d   2      25.566   2.541  15.463  0.00  0.00     0.024 C 
BRANCH  87  88
ATOM     88  CD  ARG d   2      24.825   1.498  16.292  0.00  0.00     0.152 C 
BRANCH  88  89
ATOM     89  NE  ARG d   2      24.229   0.503  15.417  0.00  0.00    -0.268 NA
ATOM     90  CZ  ARG d   2      23.242  -0.212  15.746  0.00  0.00     0.143 C 
ATOM     91  NH1 ARG d   2      22.794  -1.123  14.867  0.00  0.00    -0.278 NA
ATOM     92  NH2 ARG d   2      22.538  -0.251  16.905  0.00  0.00    -0.278 NA
ATOM     93 1HH1 ARG d   2      23.194  -0.935  13.936  0.00  0.00     0.126 HD
ATOM     94 2HH1 ARG d   2      21.811  -1.325  14.855  0.00  0.00     0.126 HD
ATOM     95 1HH2 ARG d   2      22.668   0.546  17.519  0.00  0.00     0.126 HD
ATOM     96 2HH2 ARG d   2      21.553  -0.502  16.815  0.00  0.00     0.126 HD
ENDBRANCH  88  89
ENDBRANCH  87  88
ENDBRANCH  86  87
ENDBRANCH  72  86
ENDBRANCH  69  72
ENDBRANCH  67  68
BRANCH  67  97
ATOM     97  CB  VAL d   3      22.813   8.062  12.895  0.00  0.00     0.009 C 
ATOM     98  CG1 VAL d   3      23.559   9.089  12.030  0.00  0.00     0.012 C 
ATOM     99  CG2 VAL d   3      21.561   7.550  12.190  0.00  0.00     0.012 C 
ENDBRANCH  67  97
ENDBRANCH  64  67
ENDBRANCH  62  63
BRANCH  62 100
ATOM    100  CB  TYR d   4      28.714   6.546  13.202  0.00  0.00     0.073 C 
BRANCH 100 101
ATOM    101  CG  TYR d   4      28.388   5.256  12.456  0.00  0.00    -0.056 A 
ATOM    102  CD1 TYR d   4      28.672   5.107  11.087  0.00  0.00     0.010 A 
ATOM    103  CE1 TYR d   4      28.425   3.897  10.422  0.00  0.00     0.037 A 
ATOM    104  CZ  TYR d   4      27.874   2.827  11.104  0.00  0.00     0.065 A 
ATOM    105  CE2 TYR d   4      27.603   2.931  12.457  0.00  0.00     0.037 A 
ATOM    106  CD2 TYR d   4      27.887   4.132  13.118  0.00  0.00     0.010 A 
BRANCH 104 107
ATOM    107  OH  TYR d   4      27.629   1.667  10.440  0.00  0.00    -0.361 OA
ATOM    108  HH  TYR d   4      27.807   1.849   9.500  0.00  0.00     0.217 HD
ENDBRANCH 104 107
ENDBRANCH 100 101
ENDBRANCH  62 100
ENDBRANCH  59  62
ENDBRANCH   1  58
BRANCH   1 109
ATOM    109  CB  ILE d   5      27.995  12.683  11.914  0.00  0.00     0.013 C 
ATOM    110  CG2 ILE d   5      27.869  13.181  13.361  0.00  0.00     0.012 C 
BRANCH 109 111
ATOM    111  CG1 ILE d   5      28.655  13.728  10.970  0.00  0.00     0.002 C 
ATOM    112  CD1 ILE d   5      28.553  13.447   9.477  0.00  0.00     0.005 C 
ENDBRANCH 109 111
ENDBRANCH   1 109
TORSDOF 41
ENDMDL
