MODEL 1
REMARK VINA RESULT:      -6.8      0.000      0.000
REMARK  4 active torsions:
REMARK  status: ('A' for Active; 'I' for Inactive)
REMARK    1  A    between atoms: C_2  and  O_1 
REMARK    2  A    between atoms: C_3  and  C_2 
REMARK    3  A    between atoms: C_4  and  C_3 
REMARK    4  A    between atoms: C_4  and  O_6 
ROOT
ATOM      1  C   UNL d   1      11.037  22.623  28.808  0.00  0.00     0.128 C 
ATOM      2  C   UNL d   1      10.264  22.657  30.145  0.00  0.00     0.047 C 
ATOM      3  C   UNL d   1      12.478  22.887  29.393  0.00  0.00     0.005 C 
ATOM      4  C   UNL d   1      10.793  24.010  30.736  0.00  0.00     0.009 C 
ATOM      5  C   UNL d   1      12.913  21.613  30.235  0.00  0.00     0.019 C 
ATOM      6  C   UNL d   1      13.690  23.215  28.513  0.00  0.00     0.091 C 
ATOM      7  C   UNL d   1      12.223  24.187  30.155  0.00  0.00     0.002 C 
ATOM      8  C   UNL d   1      14.919  23.469  29.417  0.00  0.00     0.133 C 
ATOM      9  C   UNL d   1      13.353  24.553  31.112  0.00  0.00     0.002 C 
ATOM     10  O   UNL d   1      15.930  22.819  29.140  0.00  0.00    -0.298 OA
ATOM     11  C   UNL d   1      14.818  24.586  30.537  0.00  0.00     0.068 C 
ATOM     12  C   UNL d   1      13.057  25.870  31.742  0.00  0.00     0.006 C 
ATOM     13  C   UNL d   1      15.889  24.618  31.836  0.00  0.00    -0.029 C 
ATOM     14  C   UNL d   1      13.978  26.055  32.927  0.00  0.00     0.006 C 
ATOM     15  C   UNL d   1      16.706  23.304  31.696  0.00  0.00     0.016 C 
ATOM     16  C   UNL d   1      17.050  25.697  31.902  0.00  0.00     0.017 C 
ATOM     17  C   UNL d   1      15.057  24.916  33.173  0.00  0.00     0.001 C 
ATOM     18  C   UNL d   1      17.946  25.441  33.151  0.00  0.00     0.079 C 
ATOM     19  C   UNL d   1      15.750  25.500  34.461  0.00  0.00     0.083 C 
ATOM     20  C   UNL d   1      17.229  25.678  34.441  0.00  0.00     0.127 C 
ATOM     21  O   UNL d   1      17.830  26.000  35.477  0.00  0.00    -0.298 OA
ENDROOT
BRANCH   1  22
ATOM     22  O   UNL d   1      10.165  23.756  28.287  0.00  0.00    -0.381 OA
ATOM     23  H   UNL d   1       9.927  24.305  29.068  0.00  0.00     0.211 HD
ENDBRANCH   1  22
BRANCH   1  24
ATOM     24  C   UNL d   1      11.234  22.328  27.297  0.00  0.00     0.184 C 
ATOM     25  O   UNL d   1      11.656  21.204  26.919  0.00  0.00    -0.292 OA
BRANCH  24  26
ATOM     26  C   UNL d   1      10.815  23.250  26.209  0.00  0.00     0.245 C 
BRANCH  26  27
ATOM     27  O   UNL d   1       9.750  22.612  25.501  0.00  0.00    -0.393 OA
ATOM     28  H   UNL d   1       9.111  22.305  26.170  0.00  0.00     0.209 HD
ENDBRANCH  26  27
ENDBRANCH  24  26
ENDBRANCH   1  24
TORSDOF 4
ENDMDL
MODEL 2
REMARK VINA RESULT:      -6.5      1.882      3.286
REMARK  4 active torsions:
REMARK  status: ('A' for Active; 'I' for Inactive)
REMARK    1  A    between atoms: C_2  and  O_1 
REMARK    2  A    between atoms: C_3  and  C_2 
REMARK    3  A    between atoms: C_4  and  C_3 
REMARK    4  A    between atoms: C_4  and  O_6 
ROOT
ATOM      1  C   UNL d   1      12.539  22.671  29.278  0.00  0.00     0.128 C 
ATOM      2  C   UNL d   1      13.696  21.752  28.826  0.00  0.00     0.047 C 
ATOM      3  C   UNL d   1      13.350  23.528  30.325  0.00  0.00     0.005 C 
ATOM      4  C   UNL d   1      14.222  21.262  30.220  0.00  0.00     0.009 C 
ATOM      5  C   UNL d   1      14.395  24.423  29.531  0.00  0.00     0.019 C 
ATOM      6  C   UNL d   1      12.681  24.485  31.318  0.00  0.00     0.091 C 
ATOM      7  C   UNL d   1      13.902  22.414  31.213  0.00  0.00     0.002 C 
ATOM      8  C   UNL d   1      13.765  25.112  32.226  0.00  0.00     0.133 C 
ATOM      9  C   UNL d   1      15.006  22.887  32.152  0.00  0.00     0.002 C 
ATOM     10  O   UNL d   1      13.754  26.344  32.297  0.00  0.00    -0.298 OA
ATOM     11  C   UNL d   1      14.715  24.147  33.049  0.00  0.00     0.068 C 
ATOM     12  C   UNL d   1      15.419  21.758  33.034  0.00  0.00     0.006 C 
ATOM     13  C   UNL d   1      16.178  24.693  33.678  0.00  0.00    -0.029 C 
ATOM     14  C   UNL d   1      16.727  22.122  33.700  0.00  0.00     0.006 C 
ATOM     15  C   UNL d   1      16.340  26.124  33.095  0.00  0.00     0.016 C 
ATOM     16  C   UNL d   1      16.340  24.972  35.230  0.00  0.00     0.017 C 
ATOM     17  C   UNL d   1      17.296  23.575  33.405  0.00  0.00     0.001 C 
ATOM     18  C   UNL d   1      17.754  25.556  35.525  0.00  0.00     0.079 C 
ATOM     19  C   UNL d   1      18.617  23.507  34.259  0.00  0.00     0.083 C 
ATOM     20  C   UNL d   1      18.854  24.575  35.270  0.00  0.00     0.127 C 
ATOM     21  O   UNL d   1      19.941  24.639  35.863  0.00  0.00    -0.298 OA
ENDROOT
BRANCH   1  22
ATOM     22  O   UNL d   1      11.742  21.443  29.694  0.00  0.00    -0.381 OA
ATOM     23  H   UNL d   1      10.823  21.752  29.860  0.00  0.00     0.211 HD
ENDBRANCH   1  22
BRANCH   1  24
ATOM     24  C   UNL d   1      11.134  23.322  29.184  0.00  0.00     0.184 C 
ATOM     25  O   UNL d   1      11.001  24.480  28.707  0.00  0.00    -0.292 OA
BRANCH  24  26
ATOM     26  C   UNL d   1       9.866  22.611  29.492  0.00  0.00     0.245 C 
BRANCH  26  27
ATOM     27  O   UNL d   1       8.824  23.275  28.775  0.00  0.00    -0.393 OA
ATOM     28  H   UNL d   1       8.414  22.609  28.192  0.00  0.00     0.209 HD
ENDBRANCH  26  27
ENDBRANCH  24  26
ENDBRANCH   1  24
TORSDOF 4
ENDMDL
MODEL 3
REMARK VINA RESULT:      -6.3     29.119     31.808
REMARK  4 active torsions:
REMARK  status: ('A' for Active; 'I' for Inactive)
REMARK    1  A    between atoms: C_2  and  O_1 
REMARK    2  A    between atoms: C_3  and  C_2 
REMARK    3  A    between atoms: C_4  and  C_3 
REMARK    4  A    between atoms: C_4  and  O_6 
ROOT
ATOM      1  C   UNL d   1      18.843  35.099  -1.797  0.00  0.00     0.128 C 
ATOM      2  C   UNL d   1      18.281  36.504  -1.490  0.00  0.00     0.047 C 
ATOM      3  C   UNL d   1      19.161  34.671  -0.313  0.00  0.00     0.005 C 
ATOM      4  C   UNL d   1      19.430  37.071  -0.585  0.00  0.00     0.009 C 
ATOM      5  C   UNL d   1      17.783  34.483   0.455  0.00  0.00     0.019 C 
ATOM      6  C   UNL d   1      19.985  33.429   0.041  0.00  0.00     0.091 C 
ATOM      7  C   UNL d   1      20.056  35.833   0.115  0.00  0.00     0.002 C 
ATOM      8  C   UNL d   1      20.146  33.348   1.577  0.00  0.00     0.133 C 
ATOM      9  C   UNL d   1      20.284  35.893   1.622  0.00  0.00     0.002 C 
ATOM     10  O   UNL d   1      19.828  32.272   2.091  0.00  0.00    -0.298 OA
ATOM     11  C   UNL d   1      20.782  34.583   2.340  0.00  0.00     0.068 C 
ATOM     12  C   UNL d   1      21.233  36.999   1.933  0.00  0.00     0.006 C 
ATOM     13  C   UNL d   1      20.576  34.785   3.998  0.00  0.00    -0.029 C 
ATOM     14  C   UNL d   1      21.178  37.277   3.418  0.00  0.00     0.006 C 
ATOM     15  C   UNL d   1      19.563  33.677   4.400  0.00  0.00     0.016 C 
ATOM     16  C   UNL d   1      21.767  34.493   5.004  0.00  0.00     0.017 C 
ATOM     17  C   UNL d   1      20.246  36.327   4.285  0.00  0.00     0.001 C 
ATOM     18  C   UNL d   1      21.279  34.664   6.474  0.00  0.00     0.079 C 
ATOM     19  C   UNL d   1      20.482  36.970   5.703  0.00  0.00     0.083 C 
ATOM     20  C   UNL d   1      20.930  36.079   6.811  0.00  0.00     0.127 C 
ATOM     21  O   UNL d   1      20.992  36.512   7.970  0.00  0.00    -0.298 OA
ENDROOT
BRANCH   1  22
ATOM     22  O   UNL d   1      19.901  35.730  -2.692  0.00  0.00    -0.381 OA
ATOM     23  H   UNL d   1      19.437  36.408  -3.234  0.00  0.00     0.211 HD
ENDBRANCH   1  22
BRANCH   1  24
ATOM     24  C   UNL d   1      19.116  33.847  -2.672  0.00  0.00     0.184 C 
ATOM     25  O   UNL d   1      18.332  32.862  -2.634  0.00  0.00    -0.292 OA
BRANCH  24  26
ATOM     26  C   UNL d   1      20.188  33.767  -3.698  0.00  0.00     0.245 C 
BRANCH  26  27
ATOM     27  O   UNL d   1      21.406  33.468  -3.015  0.00  0.00    -0.393 OA
ATOM     28  H   UNL d   1      21.447  32.498  -2.922  0.00  0.00     0.209 HD
ENDBRANCH  26  27
ENDBRANCH  24  26
ENDBRANCH   1  24
TORSDOF 4
ENDMDL
MODEL 4
REMARK VINA RESULT:      -6.2     27.518     30.022
REMARK  4 active torsions:
REMARK  status: ('A' for Active; 'I' for Inactive)
REMARK    1  A    between atoms: C_2  and  O_1 
REMARK    2  A    between atoms: C_3  and  C_2 
REMARK    3  A    between atoms: C_4  and  C_3 
REMARK    4  A    between atoms: C_4  and  O_6 
ROOT
ATOM      1  C   UNL d   1       6.336  28.762   3.228  0.00  0.00     0.128 C 
ATOM      2  C   UNL d   1       7.407  29.567   3.996  0.00  0.00     0.047 C 
ATOM      3  C   UNL d   1       5.358  29.959   2.915  0.00  0.00     0.005 C 
ATOM      4  C   UNL d   1       6.499  30.320   5.030  0.00  0.00     0.009 C 
ATOM      5  C   UNL d   1       6.073  30.925   1.876  0.00  0.00     0.019 C 
ATOM      6  C   UNL d   1       3.943  29.760   2.362  0.00  0.00     0.091 C 
ATOM      7  C   UNL d   1       5.122  30.489   4.328  0.00  0.00     0.002 C 
ATOM      8  C   UNL d   1       3.251  31.137   2.230  0.00  0.00     0.133 C 
ATOM      9  C   UNL d   1       4.462  31.864   4.352  0.00  0.00     0.002 C 
ATOM     10  O   UNL d   1       2.760  31.384   1.126  0.00  0.00    -0.298 OA
ATOM     11  C   UNL d   1       3.143  32.057   3.516  0.00  0.00     0.068 C 
ATOM     12  C   UNL d   1       4.195  32.257   5.764  0.00  0.00     0.006 C 
ATOM     13  C   UNL d   1       2.844  33.709   3.383  0.00  0.00    -0.029 C 
ATOM     14  C   UNL d   1       3.878  33.736   5.800  0.00  0.00     0.006 C 
ATOM     15  C   UNL d   1       2.917  33.994   1.858  0.00  0.00     0.016 C 
ATOM     16  C   UNL d   1       1.419  34.305   3.741  0.00  0.00     0.017 C 
ATOM     17  C   UNL d   1       3.812  34.483   4.401  0.00  0.00     0.001 C 
ATOM     18  C   UNL d   1       1.388  35.834   3.440  0.00  0.00     0.079 C 
ATOM     19  C   UNL d   1       3.481  35.937   4.907  0.00  0.00     0.083 C 
ATOM     20  C   UNL d   1       2.287  36.623   4.337  0.00  0.00     0.127 C 
ATOM     21  O   UNL d   1       2.070  37.814   4.600  0.00  0.00    -0.298 OA
ENDROOT
BRANCH   1  22
ATOM     22  O   UNL d   1       6.146  27.872   4.448  0.00  0.00    -0.381 OA
ATOM     23  H   UNL d   1       5.480  27.192   4.195  0.00  0.00     0.211 HD
ENDBRANCH   1  22
BRANCH   1  24
ATOM     24  C   UNL d   1       5.765  27.533   2.472  0.00  0.00     0.184 C 
ATOM     25  O   UNL d   1       5.843  27.466   1.218  0.00  0.00    -0.292 OA
BRANCH  24  26
ATOM     26  C   UNL d   1       5.241  26.314   3.144  0.00  0.00     0.245 C 
BRANCH  26  27
ATOM     27  O   UNL d   1       3.898  26.595   3.542  0.00  0.00    -0.393 OA
ATOM     28  H   UNL d   1       3.360  26.610   2.729  0.00  0.00     0.209 HD
ENDBRANCH  26  27
ENDBRANCH  24  26
ENDBRANCH   1  24
TORSDOF 4
ENDMDL
MODEL 5
REMARK VINA RESULT:      -5.9      4.864      7.164
REMARK  4 active torsions:
REMARK  status: ('A' for Active; 'I' for Inactive)
REMARK    1  A    between atoms: C_2  and  O_1 
REMARK    2  A    between atoms: C_3  and  C_2 
REMARK    3  A    between atoms: C_4  and  C_3 
REMARK    4  A    between atoms: C_4  and  O_6 
ROOT
ATOM      1  C   UNL d   1      14.092  18.473  22.637  0.00  0.00     0.128 C 
ATOM      2  C   UNL d   1      12.649  18.099  23.044  0.00  0.00     0.047 C 
ATOM      3  C   UNL d   1      14.415  19.419  23.857  0.00  0.00     0.005 C 
ATOM      4  C   UNL d   1      12.053  19.528  23.296  0.00  0.00     0.009 C 
ATOM      5  C   UNL d   1      14.499  18.527  25.168  0.00  0.00     0.019 C 
ATOM      6  C   UNL d   1      15.653  20.321  23.910  0.00  0.00     0.091 C 
ATOM      7  C   UNL d   1      13.254  20.406  23.745  0.00  0.00     0.002 C 
ATOM      8  C   UNL d   1      15.622  21.148  25.217  0.00  0.00     0.133 C 
ATOM      9  C   UNL d   1      13.087  21.280  24.984  0.00  0.00     0.002 C 
ATOM     10  O   UNL d   1      16.645  21.097  25.905  0.00  0.00    -0.298 OA
ATOM     11  C   UNL d   1      14.354  22.051  25.513  0.00  0.00     0.068 C 
ATOM     12  C   UNL d   1      11.992  22.263  24.750  0.00  0.00     0.006 C 
ATOM     13  C   UNL d   1      14.020  22.602  27.068  0.00  0.00    -0.029 C 
ATOM     14  C   UNL d   1      11.600  22.873  26.077  0.00  0.00     0.006 C 
ATOM     15  C   UNL d   1      15.060  21.878  27.967  0.00  0.00     0.016 C 
ATOM     16  C   UNL d   1      14.274  24.118  27.462  0.00  0.00     0.017 C 
ATOM     17  C   UNL d   1      12.450  22.428  27.343  0.00  0.00     0.001 C 
ATOM     18  C   UNL d   1      13.975  24.334  28.976  0.00  0.00     0.079 C 
ATOM     19  C   UNL d   1      11.710  23.267  28.451  0.00  0.00     0.083 C 
ATOM     20  C   UNL d   1      12.528  24.164  29.314  0.00  0.00     0.127 C 
ATOM     21  O   UNL d   1      12.010  24.733  30.286  0.00  0.00    -0.298 OA
ENDROOT
BRANCH   1  22
ATOM     22  O   UNL d   1      13.566  19.020  21.318  0.00  0.00    -0.381 OA
ATOM     23  H   UNL d   1      12.797  18.457  21.070  0.00  0.00     0.211 HD
ENDBRANCH   1  22
BRANCH   1  24
ATOM     24  C   UNL d   1      15.415  18.334  21.839  0.00  0.00     0.184 C 
ATOM     25  O   UNL d   1      16.237  17.424  22.126  0.00  0.00    -0.292 OA
BRANCH  24  26
ATOM     26  C   UNL d   1      15.740  19.127  20.624  0.00  0.00     0.245 C 
BRANCH  26  27
ATOM     27  O   UNL d   1      15.751  18.222  19.519  0.00  0.00    -0.393 OA
ATOM     28  H   UNL d   1      15.839  17.325  19.889  0.00  0.00     0.209 HD
ENDBRANCH  26  27
ENDBRANCH  24  26
ENDBRANCH   1  24
TORSDOF 4
ENDMDL
MODEL 6
REMARK VINA RESULT:      -5.7      4.093      6.627
REMARK  4 active torsions:
REMARK  status: ('A' for Active; 'I' for Inactive)
REMARK    1  A    between atoms: C_2  and  O_1 
REMARK    2  A    between atoms: C_3  and  C_2 
REMARK    3  A    between atoms: C_4  and  C_3 
REMARK    4  A    between atoms: C_4  and  O_6 
ROOT
ATOM      1  C   UNL d   1      10.799  17.896  23.787  0.00  0.00     0.128 C 
ATOM      2  C   UNL d   1       9.451  17.985  24.537  0.00  0.00     0.047 C 
ATOM      3  C   UNL d   1      11.638  18.816  24.756  0.00  0.00     0.005 C 
ATOM      4  C   UNL d   1       9.320  19.540  24.687  0.00  0.00     0.009 C 
ATOM      5  C   UNL d   1      11.805  18.057  26.140  0.00  0.00     0.019 C 
ATOM      6  C   UNL d   1      13.041  19.330  24.413  0.00  0.00     0.091 C 
ATOM      7  C   UNL d   1      10.777  20.078  24.739  0.00  0.00     0.002 C 
ATOM      8  C   UNL d   1      13.538  20.245  25.557  0.00  0.00     0.133 C 
ATOM      9  C   UNL d   1      11.143  21.069  25.839  0.00  0.00     0.002 C 
ATOM     10  O   UNL d   1      14.649  19.967  26.018  0.00  0.00    -0.298 OA
ATOM     11  C   UNL d   1      12.654  21.493  25.970  0.00  0.00     0.068 C 
ATOM     12  C   UNL d   1      10.313  22.298  25.691  0.00  0.00     0.006 C 
ATOM     13  C   UNL d   1      12.857  22.252  27.459  0.00  0.00    -0.029 C 
ATOM     14  C   UNL d   1      10.422  23.109  26.963  0.00  0.00     0.006 C 
ATOM     15  C   UNL d   1      13.863  21.345  28.221  0.00  0.00     0.016 C 
ATOM     16  C   UNL d   1      13.577  23.662  27.557  0.00  0.00     0.017 C 
ATOM     17  C   UNL d   1      11.409  22.555  28.077  0.00  0.00     0.001 C 
ATOM     18  C   UNL d   1      13.718  24.087  29.050  0.00  0.00     0.079 C 
ATOM     19  C   UNL d   1      11.198  23.664  29.174  0.00  0.00     0.083 C 
ATOM     20  C   UNL d   1      12.402  24.365  29.703  0.00  0.00     0.127 C 
ATOM     21  O   UNL d   1      12.297  25.142  30.663  0.00  0.00    -0.298 OA
ENDROOT
BRANCH   1  22
ATOM     22  O   UNL d   1      10.128  18.451  22.538  0.00  0.00    -0.381 OA
ATOM     23  H   UNL d   1       9.257  17.998  22.467  0.00  0.00     0.211 HD
ENDBRANCH   1  22
BRANCH   1  24
ATOM     24  C   UNL d   1      11.810  17.317  22.762  0.00  0.00     0.184 C 
ATOM     25  O   UNL d   1      12.506  16.310  23.055  0.00  0.00    -0.292 OA
BRANCH  24  26
ATOM     26  C   UNL d   1      11.927  17.784  21.355  0.00  0.00     0.245 C 
BRANCH  26  27
ATOM     27  O   UNL d   1      11.332  16.784  20.527  0.00  0.00    -0.393 OA
ATOM     28  H   UNL d   1      10.710  17.242  19.932  0.00  0.00     0.209 HD
ENDBRANCH  26  27
ENDBRANCH  24  26
ENDBRANCH   1  24
TORSDOF 4
ENDMDL
MODEL 7
REMARK VINA RESULT:      -5.5     24.432     26.463
REMARK  4 active torsions:
REMARK  status: ('A' for Active; 'I' for Inactive)
REMARK    1  A    between atoms: C_2  and  O_1 
REMARK    2  A    between atoms: C_3  and  C_2 
REMARK    3  A    between atoms: C_4  and  C_3 
REMARK    4  A    between atoms: C_4  and  O_6 
ROOT
ATOM      1  C   UNL d   1       7.243  24.976   4.615  0.00  0.00     0.128 C 
ATOM      2  C   UNL d   1       6.799  23.808   5.524  0.00  0.00     0.047 C 
ATOM      3  C   UNL d   1       8.623  24.370   4.153  0.00  0.00     0.005 C 
ATOM      4  C   UNL d   1       8.084  23.642   6.408  0.00  0.00     0.009 C 
ATOM      5  C   UNL d   1       8.328  23.118   3.221  0.00  0.00     0.019 C 
ATOM      6  C   UNL d   1       9.684  25.182   3.402  0.00  0.00     0.091 C 
ATOM      7  C   UNL d   1       9.267  24.104   5.513  0.00  0.00     0.002 C 
ATOM      8  C   UNL d   1      10.926  24.293   3.160  0.00  0.00     0.133 C 
ATOM      9  C   UNL d   1      10.501  23.211   5.428  0.00  0.00     0.002 C 
ATOM     10  O   UNL d   1      11.325  24.241   1.993  0.00  0.00    -0.298 OA
ATOM     11  C   UNL d   1      11.630  23.616   4.407  0.00  0.00     0.068 C 
ATOM     12  C   UNL d   1      11.107  23.079   6.783  0.00  0.00     0.006 C 
ATOM     13  C   UNL d   1      12.662  22.300   4.218  0.00  0.00    -0.029 C 
ATOM     14  C   UNL d   1      12.095  21.934   6.759  0.00  0.00     0.006 C 
ATOM     15  C   UNL d   1      12.534  21.920   2.717  0.00  0.00     0.016 C 
ATOM     16  C   UNL d   1      14.232  22.474   4.360  0.00  0.00     0.017 C 
ATOM     17  C   UNL d   1      12.326  21.223   5.358  0.00  0.00     0.001 C 
ATOM     18  C   UNL d   1      14.950  21.128   4.044  0.00  0.00     0.079 C 
ATOM     19  C   UNL d   1      13.375  20.135   5.798  0.00  0.00     0.083 C 
ATOM     20  C   UNL d   1      14.665  20.064   5.055  0.00  0.00     0.127 C 
ATOM     21  O   UNL d   1      15.458  19.137   5.273  0.00  0.00    -0.298 OA
ENDROOT
BRANCH   1  22
ATOM     22  O   UNL d   1       7.142  25.923   5.803  0.00  0.00    -0.381 OA
ATOM     23  H   UNL d   1       6.649  25.439   6.503  0.00  0.00     0.211 HD
ENDBRANCH   1  22
BRANCH   1  24
ATOM     24  C   UNL d   1       7.050  26.280   3.796  0.00  0.00     0.184 C 
ATOM     25  O   UNL d   1       6.581  26.233   2.629  0.00  0.00    -0.292 OA
BRANCH  24  26
ATOM     26  C   UNL d   1       7.248  27.646   4.349  0.00  0.00     0.245 C 
BRANCH  26  27
ATOM     27  O   UNL d   1       5.958  28.156   4.689  0.00  0.00    -0.393 OA
ATOM     28  H   UNL d   1       5.474  28.279   3.852  0.00  0.00     0.209 HD
ENDBRANCH  26  27
ENDBRANCH  24  26
ENDBRANCH   1  24
TORSDOF 4
ENDMDL
MODEL 8
REMARK VINA RESULT:      -5.5     28.336     30.545
REMARK  4 active torsions:
REMARK  status: ('A' for Active; 'I' for Inactive)
REMARK    1  A    between atoms: C_2  and  O_1 
REMARK    2  A    between atoms: C_3  and  C_2 
REMARK    3  A    between atoms: C_4  and  C_3 
REMARK    4  A    between atoms: C_4  and  O_6 
ROOT
ATOM      1  C   UNL d   1       2.891  34.131   4.301  0.00  0.00     0.128 C 
ATOM      2  C   UNL d   1       2.790  33.350   5.630  0.00  0.00     0.047 C 
ATOM      3  C   UNL d   1       3.254  32.912   3.369  0.00  0.00     0.005 C 
ATOM      4  C   UNL d   1       4.154  32.576   5.600  0.00  0.00     0.009 C 
ATOM      5  C   UNL d   1       1.984  31.963   3.276  0.00  0.00     0.019 C 
ATOM      6  C   UNL d   1       3.731  33.079   1.922  0.00  0.00     0.091 C 
ATOM      7  C   UNL d   1       4.486  32.376   4.095  0.00  0.00     0.002 C 
ATOM      8  C   UNL d   1       4.049  31.687   1.328  0.00  0.00     0.133 C 
ATOM      9  C   UNL d   1       4.904  30.987   3.625  0.00  0.00     0.002 C 
ATOM     10  O   UNL d   1       3.506  31.429   0.251  0.00  0.00    -0.298 OA
ATOM     11  C   UNL d   1       5.096  30.764   2.078  0.00  0.00     0.068 C 
ATOM     12  C   UNL d   1       6.158  30.586   4.325  0.00  0.00     0.006 C 
ATOM     13  C   UNL d   1       5.159  29.106   1.792  0.00  0.00    -0.029 C 
ATOM     14  C   UNL d   1       6.365  29.101   4.128  0.00  0.00     0.006 C 
ATOM     15  C   UNL d   1       3.932  28.823   0.883  0.00  0.00     0.016 C 
ATOM     16  C   UNL d   1       6.333  28.478   0.931  0.00  0.00     0.017 C 
ATOM     17  C   UNL d   1       5.317  28.354   3.199  0.00  0.00     0.001 C 
ATOM     18  C   UNL d   1       6.098  26.949   0.741  0.00  0.00     0.079 C 
ATOM     19  C   UNL d   1       5.896  26.892   3.291  0.00  0.00     0.083 C 
ATOM     20  C   UNL d   1       6.206  26.180   2.019  0.00  0.00     0.127 C 
ATOM     21  O   UNL d   1       6.529  24.984   2.040  0.00  0.00    -0.298 OA
ENDROOT
BRANCH   1  22
ATOM     22  O   UNL d   1       3.966  35.016   4.916  0.00  0.00    -0.381 OA
ATOM     23  H   UNL d   1       3.507  35.820   5.250  0.00  0.00     0.211 HD
ENDBRANCH   1  22
BRANCH   1  24
ATOM     24  C   UNL d   1       2.690  35.347   3.359  0.00  0.00     0.184 C 
ATOM     25  O   UNL d   1       1.576  35.545   2.806  0.00  0.00    -0.292 OA
BRANCH  24  26
ATOM     26  C   UNL d   1       3.699  36.421   3.161  0.00  0.00     0.245 C 
BRANCH  26  27
ATOM     27  O   UNL d   1       3.346  37.499   4.029  0.00  0.00    -0.393 OA
ATOM     28  H   UNL d   1       4.141  37.710   4.554  0.00  0.00     0.209 HD
ENDBRANCH  26  27
ENDBRANCH  24  26
ENDBRANCH   1  24
TORSDOF 4
ENDMDL
MODEL 9
REMARK VINA RESULT:      -5.1      5.524      8.428
REMARK  4 active torsions:
REMARK  status: ('A' for Active; 'I' for Inactive)
REMARK    1  A    between atoms: C_2  and  O_1 
REMARK    2  A    between atoms: C_3  and  C_2 
REMARK    3  A    between atoms: C_4  and  C_3 
REMARK    4  A    between atoms: C_4  and  O_6 
ROOT
ATOM      1  C   UNL d   1       9.543  16.699  23.348  0.00  0.00     0.128 C 
ATOM      2  C   UNL d   1       9.097  16.845  24.820  0.00  0.00     0.047 C 
ATOM      3  C   UNL d   1      10.848  17.580  23.436  0.00  0.00     0.005 C 
ATOM      4  C   UNL d   1       9.158  18.405  24.975  0.00  0.00     0.009 C 
ATOM      5  C   UNL d   1      11.905  16.812  24.339  0.00  0.00     0.019 C 
ATOM      6  C   UNL d   1      11.635  18.033  22.202  0.00  0.00     0.091 C 
ATOM      7  C   UNL d   1      10.259  18.878  23.985  0.00  0.00     0.002 C 
ATOM      8  C   UNL d   1      12.817  18.923  22.652  0.00  0.00     0.133 C 
ATOM      9  C   UNL d   1      11.318  19.850  24.494  0.00  0.00     0.002 C 
ATOM     10  O   UNL d   1      13.926  18.596  22.222  0.00  0.00    -0.298 OA
ATOM     11  C   UNL d   1      12.509  20.208  23.527  0.00  0.00     0.068 C 
ATOM     12  C   UNL d   1      10.659  21.115  24.927  0.00  0.00     0.006 C 
ATOM     13  C   UNL d   1      13.714  20.955  24.435  0.00  0.00    -0.029 C 
ATOM     14  C   UNL d   1      11.647  21.918  25.743  0.00  0.00     0.006 C 
ATOM     15  C   UNL d   1      14.936  20.004  24.312  0.00  0.00     0.016 C 
ATOM     16  C   UNL d   1      14.345  22.332  23.965  0.00  0.00     0.017 C 
ATOM     17  C   UNL d   1      13.112  21.320  25.876  0.00  0.00     0.001 C 
ATOM     18  C   UNL d   1      15.496  22.748  24.929  0.00  0.00     0.079 C 
ATOM     19  C   UNL d   1      13.758  22.435  26.780  0.00  0.00     0.083 C 
ATOM     20  C   UNL d   1      15.013  23.082  26.304  0.00  0.00     0.127 C 
ATOM     21  O   UNL d   1      15.630  23.861  27.045  0.00  0.00    -0.298 OA
ENDROOT
BRANCH   1  22
ATOM     22  O   UNL d   1       8.211  17.284  22.899  0.00  0.00    -0.381 OA
ATOM     23  H   UNL d   1       8.144  17.112  21.933  0.00  0.00     0.211 HD
ENDBRANCH   1  22
BRANCH   1  24
ATOM     24  C   UNL d   1       9.538  16.078  21.926  0.00  0.00     0.184 C 
ATOM     25  O   UNL d   1      10.343  15.155  21.634  0.00  0.00    -0.292 OA
BRANCH  24  26
ATOM     26  C   UNL d   1       8.528  16.397  20.883  0.00  0.00     0.245 C 
BRANCH  26  27
ATOM     27  O   UNL d   1       8.900  17.647  20.302  0.00  0.00    -0.393 OA
ATOM     28  H   UNL d   1       8.173  17.910  19.708  0.00  0.00     0.209 HD
ENDBRANCH  26  27
ENDBRANCH  24  26
ENDBRANCH   1  24
TORSDOF 4
ENDMDL
