MODEL 1
REMARK VINA RESULT:      -6.2      0.000      0.000
REMARK  4 active torsions:
REMARK  status: ('A' for Active; 'I' for Inactive)
REMARK    1  A    between atoms: C_4  and  C_2 
REMARK    2  A    between atoms: C_2  and  C_3 
REMARK    3  A    between atoms: C_4  and  O_7 
REMARK    4  A    between atoms: C_16  and  N_17 
ROOT
ATOM      1  C   UNL d   1     -17.626  -6.257  -3.851  0.00  0.00     0.150 C 
ATOM      2  C   UNL d   1     -18.603  -5.123  -4.268  0.00  0.00     0.149 C 
ATOM      3  N   UNL d   1     -16.462  -6.255  -4.766  0.00  0.00    -0.272 NA
ATOM      4  N   UNL d   1     -18.861  -5.149  -5.711  0.00  0.00    -0.371 N 
ATOM      5  C   UNL d   1     -16.727  -6.078  -6.133  0.00  0.00     0.124 A 
ATOM      6  C   UNL d   1     -17.864  -5.517  -6.619  0.00  0.00     0.153 A 
ATOM      7  C   UNL d   1     -15.750  -6.604  -7.129  0.00  0.00     0.272 A 
ATOM      8  N   UNL d   1     -18.085  -5.303  -7.958  0.00  0.00    -0.201 NA
ATOM      9  O   UNL d   1     -14.724  -7.192  -6.795  0.00  0.00    -0.266 OA
ATOM     10  N   UNL d   1     -16.087  -6.407  -8.437  0.00  0.00    -0.297 N 
ATOM     11  C   UNL d   1     -17.209  -5.744  -8.808  0.00  0.00     0.181 A 
ATOM     12  H   UNL d   1     -15.796  -7.020  -4.630  0.00  0.00     0.129 HD
ATOM     13  H   UNL d   1     -19.436  -4.405  -6.098  0.00  0.00     0.161 HD
ATOM     14  H   UNL d   1     -15.429  -6.745  -9.119  0.00  0.00     0.171 HD
ENDROOT
BRANCH   1  15
ATOM     15  C   UNL d   1     -18.319  -7.630  -3.847  0.00  0.00     0.174 C 
ATOM     16  O   UNL d   1     -19.278  -7.911  -4.579  0.00  0.00    -0.293 OA
BRANCH  15  17
ATOM     17  C   UNL d   1     -17.685  -8.720  -2.985  0.00  0.00     0.185 C 
ATOM     18  C   UNL d   1     -16.864  -9.666  -3.842  0.00  0.00     0.047 C 
BRANCH  17  19
ATOM     19  O   UNL d   1     -16.847  -8.114  -2.005  0.00  0.00    -0.388 OA
ATOM     20  H   UNL d   1     -17.309  -7.305  -1.705  0.00  0.00     0.210 HD
ENDBRANCH  17  19
ENDBRANCH  15  17
ENDBRANCH   1  15
BRANCH  11  21
ATOM     21  N   UNL d   1     -17.395  -5.569 -10.135  0.00  0.00    -0.272 NA
ATOM     22  H   UNL d   1     -16.650  -5.134 -10.658  0.00  0.00     0.127 HD
ATOM     23  H   UNL d   1     -17.778  -6.393 -10.583  0.00  0.00     0.127 HD
ENDBRANCH  11  21
TORSDOF 4
ENDMDL
MODEL 2
REMARK VINA RESULT:      -6.0      2.128      2.996
REMARK  4 active torsions:
REMARK  status: ('A' for Active; 'I' for Inactive)
REMARK    1  A    between atoms: C_4  and  C_2 
REMARK    2  A    between atoms: C_2  and  C_3 
REMARK    3  A    between atoms: C_4  and  O_7 
REMARK    4  A    between atoms: C_16  and  N_17 
ROOT
ATOM      1  C   UNL d   1     -17.113  -5.539  -6.082  0.00  0.00     0.150 C 
ATOM      2  C   UNL d   1     -18.027  -5.284  -7.311  0.00  0.00     0.149 C 
ATOM      3  N   UNL d   1     -15.852  -6.168  -6.538  0.00  0.00    -0.272 NA
ATOM      4  N   UNL d   1     -18.121  -6.475  -8.160  0.00  0.00    -0.371 N 
ATOM      5  C   UNL d   1     -15.959  -7.179  -7.506  0.00  0.00     0.124 A 
ATOM      6  C   UNL d   1     -17.029  -7.333  -8.328  0.00  0.00     0.153 A 
ATOM      7  C   UNL d   1     -14.879  -8.202  -7.600  0.00  0.00     0.272 A 
ATOM      8  N   UNL d   1     -17.095  -8.296  -9.306  0.00  0.00    -0.201 NA
ATOM      9  O   UNL d   1     -13.902  -8.196  -6.855  0.00  0.00    -0.266 OA
ATOM     10  N   UNL d   1     -15.063  -9.160  -8.554  0.00  0.00    -0.297 N 
ATOM     11  C   UNL d   1     -16.131  -9.161  -9.389  0.00  0.00     0.181 A 
ATOM     12  H   UNL d   1     -15.211  -6.457  -5.794  0.00  0.00     0.129 HD
ATOM     13  H   UNL d   1     -18.642  -6.393  -9.029  0.00  0.00     0.161 HD
ATOM     14  H   UNL d   1     -14.334  -9.849  -8.637  0.00  0.00     0.171 HD
ENDROOT
BRANCH   1  15
ATOM     15  C   UNL d   1     -17.812  -6.414  -5.026  0.00  0.00     0.174 C 
ATOM     16  O   UNL d   1     -17.204  -7.180  -4.267  0.00  0.00    -0.293 OA
BRANCH  15  17
ATOM     17  C   UNL d   1     -19.313  -6.202  -4.840  0.00  0.00     0.185 C 
ATOM     18  C   UNL d   1     -20.005  -7.521  -4.550  0.00  0.00     0.047 C 
BRANCH  17  19
ATOM     19  O   UNL d   1     -19.528  -5.302  -3.755  0.00  0.00    -0.388 OA
ATOM     20  H   UNL d   1     -19.697  -4.423  -4.151  0.00  0.00     0.210 HD
ENDBRANCH  17  19
ENDBRANCH  15  17
ENDBRANCH   1  15
BRANCH  11  21
ATOM     21  N   UNL d   1     -16.163 -10.133 -10.326  0.00  0.00    -0.272 NA
ATOM     22  H   UNL d   1     -16.306 -11.081 -10.012  0.00  0.00     0.127 HD
ATOM     23  H   UNL d   1     -16.732  -9.880 -11.126  0.00  0.00     0.127 HD
ENDBRANCH  11  21
TORSDOF 4
ENDMDL
MODEL 3
REMARK VINA RESULT:      -5.9      2.302      5.071
REMARK  4 active torsions:
REMARK  status: ('A' for Active; 'I' for Inactive)
REMARK    1  A    between atoms: C_4  and  C_2 
REMARK    2  A    between atoms: C_2  and  C_3 
REMARK    3  A    between atoms: C_4  and  O_7 
REMARK    4  A    between atoms: C_16  and  N_17 
ROOT
ATOM      1  C   UNL d   1     -16.129  -8.112  -8.349  0.00  0.00     0.150 C 
ATOM      2  C   UNL d   1     -17.644  -8.301  -8.639  0.00  0.00     0.149 C 
ATOM      3  N   UNL d   1     -15.918  -8.076  -6.884  0.00  0.00    -0.272 NA
ATOM      4  N   UNL d   1     -18.456  -7.371  -7.849  0.00  0.00    -0.371 N 
ATOM      5  C   UNL d   1     -16.836  -7.333  -6.126  0.00  0.00     0.124 A 
ATOM      6  C   UNL d   1     -18.082  -7.004  -6.553  0.00  0.00     0.153 A 
ATOM      7  C   UNL d   1     -16.408  -6.794  -4.803  0.00  0.00     0.272 A 
ATOM      8  N   UNL d   1     -18.988  -6.321  -5.778  0.00  0.00    -0.201 NA
ATOM      9  O   UNL d   1     -15.277  -6.973  -4.356  0.00  0.00    -0.266 OA
ATOM     10  N   UNL d   1     -17.351  -6.069  -4.136  0.00  0.00    -0.297 N 
ATOM     11  C   UNL d   1     -18.604  -5.884  -4.618  0.00  0.00     0.181 A 
ATOM     12  H   UNL d   1     -14.961  -7.869  -6.583  0.00  0.00     0.129 HD
ATOM     13  H   UNL d   1     -19.467  -7.459  -7.915  0.00  0.00     0.161 HD
ATOM     14  H   UNL d   1     -17.079  -5.712  -3.235  0.00  0.00     0.171 HD
ENDROOT
BRANCH   1  15
ATOM     15  C   UNL d   1     -15.578  -6.839  -9.015  0.00  0.00     0.174 C 
ATOM     16  O   UNL d   1     -16.266  -5.832  -9.230  0.00  0.00    -0.293 OA
BRANCH  15  17
ATOM     17  C   UNL d   1     -14.076  -6.798  -9.287  0.00  0.00     0.185 C 
ATOM     18  C   UNL d   1     -13.551  -8.189  -9.589  0.00  0.00     0.047 C 
BRANCH  17  19
ATOM     19  O   UNL d   1     -13.825  -5.942 -10.399  0.00  0.00    -0.388 OA
ATOM     20  H   UNL d   1     -12.852  -5.871 -10.483  0.00  0.00     0.210 HD
ENDBRANCH  17  19
ENDBRANCH  15  17
ENDBRANCH   1  15
BRANCH  11  21
ATOM     21  N   UNL d   1     -19.458  -5.194  -3.829  0.00  0.00    -0.272 NA
ATOM     22  H   UNL d   1     -19.530  -4.199  -3.976  0.00  0.00     0.127 HD
ATOM     23  H   UNL d   1     -20.354  -5.657  -3.734  0.00  0.00     0.127 HD
ENDBRANCH  11  21
TORSDOF 4
ENDMDL
MODEL 4
REMARK VINA RESULT:      -5.8      2.512      4.618
REMARK  4 active torsions:
REMARK  status: ('A' for Active; 'I' for Inactive)
REMARK    1  A    between atoms: C_4  and  C_2 
REMARK    2  A    between atoms: C_2  and  C_3 
REMARK    3  A    between atoms: C_4  and  O_7 
REMARK    4  A    between atoms: C_16  and  N_17 
ROOT
ATOM      1  C   UNL d   1     -14.752  -7.581  -6.797  0.00  0.00     0.150 C 
ATOM      2  C   UNL d   1     -14.411  -7.575  -5.282  0.00  0.00     0.149 C 
ATOM      3  N   UNL d   1     -15.656  -6.447  -7.095  0.00  0.00    -0.272 NA
ATOM      4  N   UNL d   1     -15.620  -7.426  -4.466  0.00  0.00    -0.371 N 
ATOM      5  C   UNL d   1     -16.695  -6.204  -6.183  0.00  0.00     0.124 A 
ATOM      6  C   UNL d   1     -16.691  -6.636  -4.895  0.00  0.00     0.153 A 
ATOM      7  C   UNL d   1     -17.920  -5.500  -6.659  0.00  0.00     0.272 A 
ATOM      8  N   UNL d   1     -17.692  -6.345  -4.000  0.00  0.00    -0.201 NA
ATOM      9  O   UNL d   1     -18.055  -5.130  -7.822  0.00  0.00    -0.266 OA
ATOM     10  N   UNL d   1     -18.890  -5.316  -5.716  0.00  0.00    -0.297 N 
ATOM     11  C   UNL d   1     -18.738  -5.707  -4.428  0.00  0.00     0.181 A 
ATOM     12  H   UNL d   1     -16.012  -6.409  -8.055  0.00  0.00     0.129 HD
ATOM     13  H   UNL d   1     -15.500  -7.341  -3.460  0.00  0.00     0.161 HD
ATOM     14  H   UNL d   1     -19.717  -4.829  -6.021  0.00  0.00     0.171 HD
ENDROOT
BRANCH   1  15
ATOM     15  C   UNL d   1     -15.384  -8.915  -7.231  0.00  0.00     0.174 C 
ATOM     16  O   UNL d   1     -15.688  -9.815  -6.436  0.00  0.00    -0.293 OA
BRANCH  15  17
ATOM     17  C   UNL d   1     -15.767  -9.050  -8.704  0.00  0.00     0.185 C 
ATOM     18  C   UNL d   1     -17.231  -8.708  -8.907  0.00  0.00     0.047 C 
BRANCH  17  19
ATOM     19  O   UNL d   1     -14.959  -8.170  -9.481  0.00  0.00    -0.388 OA
ATOM     20  H   UNL d   1     -14.810  -7.372  -8.934  0.00  0.00     0.210 HD
ENDBRANCH  17  19
ENDBRANCH  15  17
ENDBRANCH   1  15
BRANCH  11  21
ATOM     21  N   UNL d   1     -19.753  -5.413  -3.585  0.00  0.00    -0.272 NA
ATOM     22  H   UNL d   1     -20.682  -5.359  -3.973  0.00  0.00     0.127 HD
ATOM     23  H   UNL d   1     -19.703  -5.942  -2.722  0.00  0.00     0.127 HD
ENDBRANCH  11  21
TORSDOF 4
ENDMDL
MODEL 5
REMARK VINA RESULT:      -5.8      1.793      3.132
REMARK  4 active torsions:
REMARK  status: ('A' for Active; 'I' for Inactive)
REMARK    1  A    between atoms: C_4  and  C_2 
REMARK    2  A    between atoms: C_2  and  C_3 
REMARK    3  A    between atoms: C_4  and  O_7 
REMARK    4  A    between atoms: C_16  and  N_17 
ROOT
ATOM      1  C   UNL d   1     -17.173  -9.101  -5.158  0.00  0.00     0.150 C 
ATOM      2  C   UNL d   1     -16.796  -9.906  -6.432  0.00  0.00     0.149 C 
ATOM      3  N   UNL d   1     -18.122  -8.027  -5.528  0.00  0.00    -0.272 NA
ATOM      4  N   UNL d   1     -16.429  -9.014  -7.535  0.00  0.00    -0.371 N 
ATOM      5  C   UNL d   1     -17.851  -7.314  -6.706  0.00  0.00     0.124 A 
ATOM      6  C   UNL d   1     -17.062  -7.779  -7.709  0.00  0.00     0.153 A 
ATOM      7  C   UNL d   1     -18.385  -5.930  -6.849  0.00  0.00     0.272 A 
ATOM      8  N   UNL d   1     -16.848  -7.091  -8.879  0.00  0.00    -0.201 NA
ATOM      9  O   UNL d   1     -19.050  -5.388  -5.969  0.00  0.00    -0.266 OA
ATOM     10  N   UNL d   1     -18.063  -5.298  -8.015  0.00  0.00    -0.297 N 
ATOM     11  C   UNL d   1     -17.344  -5.898  -8.995  0.00  0.00     0.181 A 
ATOM     12  H   UNL d   1     -18.371  -7.381  -4.773  0.00  0.00     0.129 HD
ATOM     13  H   UNL d   1     -16.230  -9.439  -8.437  0.00  0.00     0.161 HD
ATOM     14  H   UNL d   1     -18.430  -4.367  -8.130  0.00  0.00     0.171 HD
ENDROOT
BRANCH   1  15
ATOM     15  C   UNL d   1     -15.929  -8.520  -4.465  0.00  0.00     0.174 C 
ATOM     16  O   UNL d   1     -14.791  -8.575  -4.950  0.00  0.00    -0.293 OA
BRANCH  15  17
ATOM     17  C   UNL d   1     -16.163  -7.724  -3.182  0.00  0.00     0.185 C 
ATOM     18  C   UNL d   1     -16.225  -6.238  -3.481  0.00  0.00     0.047 C 
BRANCH  17  19
ATOM     19  O   UNL d   1     -17.388  -8.143  -2.587  0.00  0.00    -0.388 OA
ATOM     20  H   UNL d   1     -18.024  -8.271  -3.320  0.00  0.00     0.210 HD
ENDBRANCH  17  19
ENDBRANCH  15  17
ENDBRANCH   1  15
BRANCH  11  21
ATOM     21  N   UNL d   1     -17.146  -5.180 -10.123  0.00  0.00    -0.272 NA
ATOM     22  H   UNL d   1     -16.193  -5.009 -10.406  0.00  0.00     0.127 HD
ATOM     23  H   UNL d   1     -17.748  -5.478 -10.881  0.00  0.00     0.127 HD
ENDBRANCH  11  21
TORSDOF 4
ENDMDL
MODEL 6
REMARK VINA RESULT:      -5.5     30.434     31.494
REMARK  4 active torsions:
REMARK  status: ('A' for Active; 'I' for Inactive)
REMARK    1  A    between atoms: C_4  and  C_2 
REMARK    2  A    between atoms: C_2  and  C_3 
REMARK    3  A    between atoms: C_4  and  O_7 
REMARK    4  A    between atoms: C_16  and  N_17 
ROOT
ATOM      1  C   UNL d   1      -2.459   0.043 -32.908  0.00  0.00     0.150 C 
ATOM      2  C   UNL d   1      -1.396  -0.345 -33.972  0.00  0.00     0.149 C 
ATOM      3  N   UNL d   1      -1.781   0.675 -31.754  0.00  0.00    -0.272 NA
ATOM      4  N   UNL d   1      -0.269  -1.057 -33.363  0.00  0.00    -0.371 N 
ATOM      5  C   UNL d   1      -0.587   0.081 -31.313  0.00  0.00     0.124 A 
ATOM      6  C   UNL d   1       0.182  -0.735 -32.079  0.00  0.00     0.153 A 
ATOM      7  C   UNL d   1      -0.164   0.281 -29.898  0.00  0.00     0.272 A 
ATOM      8  N   UNL d   1       1.375  -1.266 -31.651  0.00  0.00    -0.201 NA
ATOM      9  O   UNL d   1      -0.826   0.942 -29.101  0.00  0.00    -0.266 OA
ATOM     10  N   UNL d   1       0.998  -0.341 -29.543  0.00  0.00    -0.297 N 
ATOM     11  C   UNL d   1       1.739  -1.057 -30.423  0.00  0.00     0.181 A 
ATOM     12  H   UNL d   1      -2.383   0.892 -30.955  0.00  0.00     0.129 HD
ATOM     13  H   UNL d   1       0.515  -1.296 -33.964  0.00  0.00     0.161 HD
ATOM     14  H   UNL d   1       1.302  -0.203 -28.593  0.00  0.00     0.171 HD
ENDROOT
BRANCH   1  15
ATOM     15  C   UNL d   1      -3.284  -1.176 -32.460  0.00  0.00     0.174 C 
ATOM     16  O   UNL d   1      -3.681  -1.339 -31.299  0.00  0.00    -0.293 OA
BRANCH  15  17
ATOM     17  C   UNL d   1      -3.733  -2.144 -33.553  0.00  0.00     0.185 C 
ATOM     18  C   UNL d   1      -4.149  -3.473 -32.949  0.00  0.00     0.047 C 
BRANCH  17  19
ATOM     19  O   UNL d   1      -4.833  -1.576 -34.259  0.00  0.00    -0.388 OA
ATOM     20  H   UNL d   1      -5.123  -0.797 -33.744  0.00  0.00     0.210 HD
ENDBRANCH  17  19
ENDBRANCH  15  17
ENDBRANCH   1  15
BRANCH  11  21
ATOM     21  N   UNL d   1       2.897  -1.573 -29.955  0.00  0.00    -0.272 NA
ATOM     22  H   UNL d   1       2.914  -2.556 -29.730  0.00  0.00     0.127 HD
ATOM     23  H   UNL d   1       3.701  -1.266 -30.491  0.00  0.00     0.127 HD
ENDBRANCH  11  21
TORSDOF 4
ENDMDL
MODEL 7
REMARK VINA RESULT:      -5.5      3.129      5.214
REMARK  4 active torsions:
REMARK  status: ('A' for Active; 'I' for Inactive)
REMARK    1  A    between atoms: C_4  and  C_2 
REMARK    2  A    between atoms: C_2  and  C_3 
REMARK    3  A    between atoms: C_4  and  O_7 
REMARK    4  A    between atoms: C_16  and  N_17 
ROOT
ATOM      1  C   UNL d   1     -14.344  -8.579  -8.392  0.00  0.00     0.150 C 
ATOM      2  C   UNL d   1     -14.060  -8.395  -6.876  0.00  0.00     0.149 C 
ATOM      3  N   UNL d   1     -15.290  -7.532  -8.839  0.00  0.00    -0.272 NA
ATOM      4  N   UNL d   1     -15.305  -8.224  -6.120  0.00  0.00    -0.371 N 
ATOM      5  C   UNL d   1     -16.372  -7.248  -7.992  0.00  0.00     0.124 A 
ATOM      6  C   UNL d   1     -16.396  -7.541  -6.666  0.00  0.00     0.153 A 
ATOM      7  C   UNL d   1     -17.612  -6.663  -8.580  0.00  0.00     0.272 A 
ATOM      8  N   UNL d   1     -17.443  -7.209  -5.840  0.00  0.00    -0.201 NA
ATOM      9  O   UNL d   1     -17.720  -6.426  -9.781  0.00  0.00    -0.266 OA
ATOM     10  N   UNL d   1     -18.624  -6.432  -7.695  0.00  0.00    -0.297 N 
ATOM     11  C   UNL d   1     -18.502  -6.676  -6.367  0.00  0.00     0.181 A 
ATOM     12  H   UNL d   1     -15.610  -7.614  -9.808  0.00  0.00     0.129 HD
ATOM     13  H   UNL d   1     -15.227  -8.027  -5.126  0.00  0.00     0.161 HD
ATOM     14  H   UNL d   1     -19.461  -6.024  -8.077  0.00  0.00     0.171 HD
ENDROOT
BRANCH   1  15
ATOM     15  C   UNL d   1     -14.893  -9.983  -8.700  0.00  0.00     0.174 C 
ATOM     16  O   UNL d   1     -15.129 -10.828  -7.826  0.00  0.00    -0.293 OA
BRANCH  15  17
ATOM     17  C   UNL d   1     -15.284 -10.268 -10.149  0.00  0.00     0.185 C 
ATOM     18  C   UNL d   1     -15.221 -11.757 -10.434  0.00  0.00     0.047 C 
BRANCH  17  19
ATOM     19  O   UNL d   1     -16.608  -9.794 -10.379  0.00  0.00    -0.388 OA
ATOM     20  H   UNL d   1     -16.706  -9.698 -11.348  0.00  0.00     0.210 HD
ENDBRANCH  17  19
ENDBRANCH  15  17
ENDBRANCH   1  15
BRANCH  11  21
ATOM     21  N   UNL d   1     -19.560  -6.348  -5.594  0.00  0.00    -0.272 NA
ATOM     22  H   UNL d   1     -20.019  -7.091  -5.090  0.00  0.00     0.127 HD
ATOM     23  H   UNL d   1     -19.387  -5.523  -5.032  0.00  0.00     0.127 HD
ENDBRANCH  11  21
TORSDOF 4
ENDMDL
MODEL 8
REMARK VINA RESULT:      -5.4     13.703     14.898
REMARK  4 active torsions:
REMARK  status: ('A' for Active; 'I' for Inactive)
REMARK    1  A    between atoms: C_4  and  C_2 
REMARK    2  A    between atoms: C_2  and  C_3 
REMARK    3  A    between atoms: C_4  and  O_7 
REMARK    4  A    between atoms: C_16  and  N_17 
ROOT
ATOM      1  C   UNL d   1     -27.075 -18.417  -5.910  0.00  0.00     0.150 C 
ATOM      2  C   UNL d   1     -27.193 -19.223  -7.232  0.00  0.00     0.149 C 
ATOM      3  N   UNL d   1     -28.195 -17.451  -5.830  0.00  0.00    -0.272 NA
ATOM      4  N   UNL d   1     -27.420 -18.336  -8.377  0.00  0.00    -0.371 N 
ATOM      5  C   UNL d   1     -28.521 -16.755  -7.004  0.00  0.00     0.124 A 
ATOM      6  C   UNL d   1     -28.188 -17.174  -8.252  0.00  0.00     0.153 A 
ATOM      7  C   UNL d   1     -29.202 -15.434  -6.892  0.00  0.00     0.272 A 
ATOM      8  N   UNL d   1     -28.560 -16.508  -9.395  0.00  0.00    -0.201 NA
ATOM      9  O   UNL d   1     -29.483 -14.930  -5.807  0.00  0.00    -0.266 OA
ATOM     10  N   UNL d   1     -29.470 -14.813  -8.077  0.00  0.00    -0.297 N 
ATOM     11  C   UNL d   1     -29.177 -15.372  -9.276  0.00  0.00     0.181 A 
ATOM     12  H   UNL d   1     -28.165 -16.808  -5.034  0.00  0.00     0.129 HD
ATOM     13  H   UNL d   1     -27.579 -18.770  -9.283  0.00  0.00     0.161 HD
ATOM     14  H   UNL d   1     -29.943 -13.926  -8.015  0.00  0.00     0.171 HD
ENDROOT
BRANCH   1  15
ATOM     15  C   UNL d   1     -25.720 -17.696  -5.804  0.00  0.00     0.174 C 
ATOM     16  O   UNL d   1     -25.603 -16.520  -5.435  0.00  0.00    -0.293 OA
BRANCH  15  17
ATOM     17  C   UNL d   1     -24.469 -18.540  -6.040  0.00  0.00     0.185 C 
ATOM     18  C   UNL d   1     -23.224 -17.772  -5.636  0.00  0.00     0.047 C 
BRANCH  17  19
ATOM     19  O   UNL d   1     -24.560 -19.738  -5.274  0.00  0.00    -0.388 OA
ATOM     20  H   UNL d   1     -25.189 -20.322  -5.743  0.00  0.00     0.210 HD
ENDBRANCH  17  19
ENDBRANCH  15  17
ENDBRANCH   1  15
BRANCH  11  21
ATOM     21  N   UNL d   1     -29.547 -14.676 -10.373  0.00  0.00    -0.272 NA
ATOM     22  H   UNL d   1     -30.514 -14.730 -10.656  0.00  0.00     0.127 HD
ATOM     23  H   UNL d   1     -29.174 -13.734 -10.377  0.00  0.00     0.127 HD
ENDBRANCH  11  21
TORSDOF 4
ENDMDL
MODEL 9
REMARK VINA RESULT:      -5.4     28.645     30.837
REMARK  4 active torsions:
REMARK  status: ('A' for Active; 'I' for Inactive)
REMARK    1  A    between atoms: C_4  and  C_2 
REMARK    2  A    between atoms: C_2  and  C_3 
REMARK    3  A    between atoms: C_4  and  O_7 
REMARK    4  A    between atoms: C_16  and  N_17 
ROOT
ATOM      1  C   UNL d   1     -31.338 -10.124  19.915  0.00  0.00     0.150 C 
ATOM      2  C   UNL d   1     -32.067  -9.358  21.053  0.00  0.00     0.149 C 
ATOM      3  N   UNL d   1     -32.341 -10.828  19.085  0.00  0.00    -0.272 NA
ATOM      4  N   UNL d   1     -33.041 -10.218  21.732  0.00  0.00    -0.371 N 
ATOM      5  C   UNL d   1     -33.383 -11.482  19.761  0.00  0.00     0.124 A 
ATOM      6  C   UNL d   1     -33.766 -11.187  21.031  0.00  0.00     0.153 A 
ATOM      7  C   UNL d   1     -34.069 -12.625  19.094  0.00  0.00     0.272 A 
ATOM      8  N   UNL d   1     -34.822 -11.800  21.660  0.00  0.00    -0.201 NA
ATOM      9  O   UNL d   1     -33.750 -13.018  17.975  0.00  0.00    -0.266 OA
ATOM     10  N   UNL d   1     -35.059 -13.217  19.823  0.00  0.00    -0.297 N 
ATOM     11  C   UNL d   1     -35.424 -12.775  21.051  0.00  0.00     0.181 A 
ATOM     12  H   UNL d   1     -31.959 -11.434  18.354  0.00  0.00     0.129 HD
ATOM     13  H   UNL d   1     -33.622  -9.793  22.450  0.00  0.00     0.161 HD
ATOM     14  H   UNL d   1     -35.539 -13.981  19.378  0.00  0.00     0.171 HD
ENDROOT
BRANCH   1  15
ATOM     15  C   UNL d   1     -30.296 -11.110  20.471  0.00  0.00     0.174 C 
ATOM     16  O   UNL d   1     -30.333 -11.560  21.624  0.00  0.00    -0.293 OA
BRANCH  15  17
ATOM     17  C   UNL d   1     -29.258 -11.644  19.487  0.00  0.00     0.185 C 
ATOM     18  C   UNL d   1     -28.660 -12.943  19.996  0.00  0.00     0.047 C 
BRANCH  17  19
ATOM     19  O   UNL d   1     -29.880 -11.868  18.225  0.00  0.00    -0.388 OA
ATOM     20  H   UNL d   1     -30.328 -12.736  18.284  0.00  0.00     0.210 HD
ENDBRANCH  17  19
ENDBRANCH  15  17
ENDBRANCH   1  15
BRANCH  11  21
ATOM     21  N   UNL d   1     -36.457 -13.416  21.640  0.00  0.00    -0.272 NA
ATOM     22  H   UNL d   1     -36.418 -14.423  21.686  0.00  0.00     0.127 HD
ATOM     23  H   UNL d   1     -36.735 -12.980  22.511  0.00  0.00     0.127 HD
ENDBRANCH  11  21
TORSDOF 4
ENDMDL
