MODEL 1
REMARK VINA RESULT:      -3.4      0.000      0.000
REMARK  2 active torsions:
REMARK  status: ('A' for Active; 'I' for Inactive)
REMARK    1  A    between atoms: C_2  and  O_1 
REMARK    2  A    between atoms: C_3  and  C_2 
ROOT
ATOM      1  C   UNL d   1      31.146   6.881  28.502  0.00  0.00     0.213 C 
ATOM      2  O   UNL d   1      30.101   7.376  28.867  0.00  0.00    -0.644 OA
ENDROOT
BRANCH   1   3
ATOM      3  C   UNL d   1      32.492   7.191  29.149  0.00  0.00     0.218 C 
ATOM      4  C   UNL d   1      33.451   8.017  28.352  0.00  0.00     0.103 C 
ATOM      5  O   UNL d   1      32.701   6.744  30.274  0.00  0.00    -0.286 OA
ENDBRANCH   1   3
BRANCH   1   6
ATOM      6  O   UNL d   1      31.299   6.000  27.495  0.00  0.00    -0.771 OA
ATOM      7  H   UNL d   1      30.994   6.416  26.654  0.00  0.00     0.168 HD
ENDBRANCH   1   6
TORSDOF 2
ENDMDL
MODEL 2
REMARK VINA RESULT:      -3.3     20.748     21.124
REMARK  2 active torsions:
REMARK  status: ('A' for Active; 'I' for Inactive)
REMARK    1  A    between atoms: C_2  and  O_1 
REMARK    2  A    between atoms: C_3  and  C_2 
ROOT
ATOM      1  C   UNL d   1      38.500  10.441   8.987  0.00  0.00     0.213 C 
ATOM      2  O   UNL d   1      38.811  11.510   8.506  0.00  0.00    -0.644 OA
ENDROOT
BRANCH   1   3
ATOM      3  C   UNL d   1      37.129   9.801   8.792  0.00  0.00     0.218 C 
ATOM      4  C   UNL d   1      35.987  10.724   8.503  0.00  0.00     0.103 C 
ATOM      5  O   UNL d   1      37.051   8.579   8.886  0.00  0.00    -0.286 OA
ENDBRANCH   1   3
BRANCH   1   6
ATOM      6  O   UNL d   1      39.282   9.655   9.752  0.00  0.00    -0.771 OA
ATOM      7  H   UNL d   1      39.419   8.792   9.293  0.00  0.00     0.168 HD
ENDBRANCH   1   6
TORSDOF 2
ENDMDL
MODEL 3
REMARK VINA RESULT:      -3.0      1.645      2.653
REMARK  2 active torsions:
REMARK  status: ('A' for Active; 'I' for Inactive)
REMARK    1  A    between atoms: C_2  and  O_1 
REMARK    2  A    between atoms: C_3  and  C_2 
ROOT
ATOM      1  C   UNL d   1      32.603   7.162  29.888  0.00  0.00     0.213 C 
ATOM      2  O   UNL d   1      33.285   8.118  30.192  0.00  0.00    -0.644 OA
ENDROOT
BRANCH   1   3
ATOM      3  C   UNL d   1      31.192   7.285  29.322  0.00  0.00     0.218 C 
ATOM      4  C   UNL d   1      30.957   6.705  27.963  0.00  0.00     0.103 C 
ATOM      5  O   UNL d   1      30.348   7.850  30.012  0.00  0.00    -0.286 OA
ENDBRANCH   1   3
BRANCH   1   6
ATOM      6  O   UNL d   1      32.958   5.867  29.992  0.00  0.00    -0.771 OA
ATOM      7  H   UNL d   1      32.768   5.554  30.909  0.00  0.00     0.168 HD
ENDBRANCH   1   6
TORSDOF 2
ENDMDL
MODEL 4
REMARK VINA RESULT:      -2.9      2.445      2.971
REMARK  2 active torsions:
REMARK  status: ('A' for Active; 'I' for Inactive)
REMARK    1  A    between atoms: C_2  and  O_1 
REMARK    2  A    between atoms: C_3  and  C_2 
ROOT
ATOM      1  C   UNL d   1      33.487   8.527  28.062  0.00  0.00     0.213 C 
ATOM      2  O   UNL d   1      32.999   9.019  27.067  0.00  0.00    -0.644 OA
ENDROOT
BRANCH   1   3
ATOM      3  C   UNL d   1      34.198   9.341  29.138  0.00  0.00     0.218 C 
ATOM      4  C   UNL d   1      35.166  10.381  28.670  0.00  0.00     0.103 C 
ATOM      5  O   UNL d   1      33.934   9.089  30.311  0.00  0.00    -0.286 OA
ENDBRANCH   1   3
BRANCH   1   6
ATOM      6  O   UNL d   1      33.487   7.219  28.383  0.00  0.00    -0.771 OA
ATOM      7  H   UNL d   1      32.873   6.738  27.778  0.00  0.00     0.168 HD
ENDBRANCH   1   6
TORSDOF 2
ENDMDL
MODEL 5
REMARK VINA RESULT:      -2.9      1.710      2.658
REMARK  2 active torsions:
REMARK  status: ('A' for Active; 'I' for Inactive)
REMARK    1  A    between atoms: C_2  and  O_1 
REMARK    2  A    between atoms: C_3  and  C_2 
ROOT
ATOM      1  C   UNL d   1      31.500   7.219  27.686  0.00  0.00     0.213 C 
ATOM      2  O   UNL d   1      32.488   7.884  27.455  0.00  0.00    -0.644 OA
ENDROOT
BRANCH   1   3
ATOM      3  C   UNL d   1      30.249   7.781  28.353  0.00  0.00     0.218 C 
ATOM      4  C   UNL d   1      29.104   8.131  27.456  0.00  0.00     0.103 C 
ATOM      5  O   UNL d   1      30.263   7.910  29.574  0.00  0.00    -0.286 OA
ENDBRANCH   1   3
BRANCH   1   6
ATOM      6  O   UNL d   1      31.338   5.912  27.403  0.00  0.00    -0.771 OA
ATOM      7  H   UNL d   1      31.501   5.768  26.441  0.00  0.00     0.168 HD
ENDBRANCH   1   6
TORSDOF 2
ENDMDL
MODEL 6
REMARK VINA RESULT:      -2.9     17.317     18.259
REMARK  2 active torsions:
REMARK  status: ('A' for Active; 'I' for Inactive)
REMARK    1  A    between atoms: C_2  and  O_1 
REMARK    2  A    between atoms: C_3  and  C_2 
ROOT
ATOM      1  C   UNL d   1      32.383  -9.314  19.447  0.00  0.00     0.213 C 
ATOM      2  O   UNL d   1      33.563  -9.588  19.391  0.00  0.00    -0.644 OA
ENDROOT
BRANCH   1   3
ATOM      3  C   UNL d   1      31.831  -8.134  20.240  0.00  0.00     0.218 C 
ATOM      4  C   UNL d   1      30.351  -7.920  20.193  0.00  0.00     0.103 C 
ATOM      5  O   UNL d   1      32.632  -7.440  20.860  0.00  0.00    -0.286 OA
ENDBRANCH   1   3
BRANCH   1   6
ATOM      6  O   UNL d   1      31.383  -9.981  18.837  0.00  0.00    -0.771 OA
ATOM      7  H   UNL d   1      31.767 -10.590  18.162  0.00  0.00     0.168 HD
ENDBRANCH   1   6
TORSDOF 2
ENDMDL
MODEL 7
REMARK VINA RESULT:      -2.5     13.434     14.409
REMARK  2 active torsions:
REMARK  status: ('A' for Active; 'I' for Inactive)
REMARK    1  A    between atoms: C_2  and  O_1 
REMARK    2  A    between atoms: C_3  and  C_2 
ROOT
ATOM      1  C   UNL d   1      24.323  -3.638  24.395  0.00  0.00     0.213 C 
ATOM      2  O   UNL d   1      24.193  -2.487  24.752  0.00  0.00    -0.644 OA
ENDROOT
BRANCH   1   3
ATOM      3  C   UNL d   1      24.037  -4.834  25.297  0.00  0.00     0.218 C 
ATOM      4  C   UNL d   1      22.875  -5.699  24.923  0.00  0.00     0.103 C 
ATOM      5  O   UNL d   1      24.771  -5.006  26.266  0.00  0.00    -0.286 OA
ENDBRANCH   1   3
BRANCH   1   6
ATOM      6  O   UNL d   1      24.730  -4.052  23.179  0.00  0.00    -0.771 OA
ATOM      7  H   UNL d   1      24.340  -4.940  22.994  0.00  0.00     0.168 HD
ENDBRANCH   1   6
TORSDOF 2
ENDMDL
MODEL 8
REMARK VINA RESULT:      -2.5     23.205     23.777
REMARK  2 active torsions:
REMARK  status: ('A' for Active; 'I' for Inactive)
REMARK    1  A    between atoms: C_2  and  O_1 
REMARK    2  A    between atoms: C_3  and  C_2 
ROOT
ATOM      1  C   UNL d   1      23.876  -1.328   7.871  0.00  0.00     0.213 C 
ATOM      2  O   UNL d   1      23.548  -0.679   6.901  0.00  0.00    -0.644 OA
ENDROOT
BRANCH   1   3
ATOM      3  C   UNL d   1      22.899  -1.761   8.960  0.00  0.00     0.218 C 
ATOM      4  C   UNL d   1      22.733  -3.233   9.171  0.00  0.00     0.103 C 
ATOM      5  O   UNL d   1      22.316  -0.881   9.586  0.00  0.00    -0.286 OA
ENDBRANCH   1   3
BRANCH   1   6
ATOM      6  O   UNL d   1      25.118  -1.766   8.151  0.00  0.00    -0.771 OA
ATOM      7  H   UNL d   1      25.471  -2.256   7.370  0.00  0.00     0.168 HD
ENDBRANCH   1   6
TORSDOF 2
ENDMDL
MODEL 9
REMARK VINA RESULT:      -2.5      2.349      2.673
REMARK  2 active torsions:
REMARK  status: ('A' for Active; 'I' for Inactive)
REMARK    1  A    between atoms: C_2  and  O_1 
REMARK    2  A    between atoms: C_3  and  C_2 
ROOT
ATOM      1  C   UNL d   1      31.242   7.536  30.797  0.00  0.00     0.213 C 
ATOM      2  O   UNL d   1      30.618   7.310  31.812  0.00  0.00    -0.644 OA
ENDROOT
BRANCH   1   3
ATOM      3  C   UNL d   1      32.429   8.491  30.737  0.00  0.00     0.218 C 
ATOM      4  C   UNL d   1      33.540   8.251  31.710  0.00  0.00     0.103 C 
ATOM      5  O   UNL d   1      32.396   9.390  29.901  0.00  0.00    -0.286 OA
ENDBRANCH   1   3
BRANCH   1   6
ATOM      6  O   UNL d   1      31.005   7.000  29.584  0.00  0.00    -0.771 OA
ATOM      7  H   UNL d   1      31.832   7.041  29.047  0.00  0.00     0.168 HD
ENDBRANCH   1   6
TORSDOF 2
ENDMDL
