MODEL 1
REMARK VINA RESULT:      -5.4      0.000      0.000
REMARK  4 active torsions:
REMARK  status: ('A' for Active; 'I' for Inactive)
REMARK    1  A    between atoms: C_2  and  O_1 
REMARK    2  A    between atoms: CA_3  and  C_2 
REMARK    3  A    between atoms: C_9  and  C_6 
REMARK    4  A    between atoms: O_12  and  C_9 
ROOT
ATOM      1  CA  UNL d   1      -4.518 -17.848  30.132  0.00  0.00     0.146 A 
ATOM      2  N   UNL d   1      -5.754 -17.619  30.696  0.00  0.00    -0.253 NA
ATOM      3  C   UNL d   1      -4.051 -17.170  29.013  0.00  0.00     0.073 A 
ATOM      4  C   UNL d   1      -6.558 -16.733  30.075  0.00  0.00     0.117 A 
ATOM      5  C   UNL d   1      -4.903 -16.226  28.427  0.00  0.00     0.022 A 
ATOM      6  C   UNL d   1      -6.181 -16.021  28.948  0.00  0.00     0.020 A 
ENDROOT
BRANCH   1   7
ATOM      7  C   UNL d   1      -3.761 -18.933  30.821  0.00  0.00     0.196 C 
ATOM      8  OXT UNL d   1      -3.736 -20.100  30.492  0.00  0.00    -0.645 OA
BRANCH   7   9
ATOM      9  O   UNL d   1      -3.172 -18.443  31.946  0.00  0.00    -0.772 OA
ATOM     10  H   UNL d   1      -2.453 -17.818  31.694  0.00  0.00     0.167 HD
ENDBRANCH   7   9
ENDBRANCH   1   7
BRANCH   3  11
ATOM     11  C   UNL d   1      -2.660 -17.287  28.551  0.00  0.00     0.178 C 
ATOM     12  O   UNL d   1      -2.251 -18.248  27.927  0.00  0.00    -0.646 OA
BRANCH  11  13
ATOM     13  O   UNL d   1      -1.855 -16.292  28.992  0.00  0.00    -0.773 OA
ATOM     14  H   UNL d   1      -2.219 -15.388  28.963  0.00  0.00     0.167 HD
ENDBRANCH  11  13
ENDBRANCH   3  11
TORSDOF 4
ENDMDL
MODEL 2
REMARK VINA RESULT:      -5.4     17.274     18.366
REMARK  4 active torsions:
REMARK  status: ('A' for Active; 'I' for Inactive)
REMARK    1  A    between atoms: C_2  and  O_1 
REMARK    2  A    between atoms: CA_3  and  C_2 
REMARK    3  A    between atoms: C_9  and  C_6 
REMARK    4  A    between atoms: O_12  and  C_9 
ROOT
ATOM      1  CA  UNL d   1     -10.735  -5.276  17.430  0.00  0.00     0.146 A 
ATOM      2  N   UNL d   1     -11.807  -4.490  17.792  0.00  0.00    -0.253 NA
ATOM      3  C   UNL d   1     -10.831  -6.642  17.200  0.00  0.00     0.073 A 
ATOM      4  C   UNL d   1     -12.986  -5.113  17.989  0.00  0.00     0.117 A 
ATOM      5  C   UNL d   1     -12.087  -7.239  17.373  0.00  0.00     0.022 A 
ATOM      6  C   UNL d   1     -13.172  -6.472  17.795  0.00  0.00     0.020 A 
ENDROOT
BRANCH   1   7
ATOM      7  C   UNL d   1      -9.456  -4.511  17.362  0.00  0.00     0.196 C 
ATOM      8  OXT UNL d   1      -9.097  -3.810  16.439  0.00  0.00    -0.645 OA
BRANCH   7   9
ATOM      9  O   UNL d   1      -8.690  -4.791  18.452  0.00  0.00    -0.772 OA
ATOM     10  H   UNL d   1      -7.740  -4.649  18.229  0.00  0.00     0.167 HD
ENDBRANCH   7   9
ENDBRANCH   1   7
BRANCH   3  11
ATOM     11  C   UNL d   1      -9.724  -7.420  16.625  0.00  0.00     0.178 C 
ATOM     12  O   UNL d   1      -9.442  -7.390  15.443  0.00  0.00    -0.646 OA
BRANCH  11  13
ATOM     13  O   UNL d   1      -9.136  -8.261  17.506  0.00  0.00    -0.773 OA
ATOM     14  H   UNL d   1      -9.728  -8.805  18.058  0.00  0.00     0.167 HD
ENDBRANCH  11  13
ENDBRANCH   3  11
TORSDOF 4
ENDMDL
MODEL 3
REMARK VINA RESULT:      -4.8      9.745     11.094
REMARK  4 active torsions:
REMARK  status: ('A' for Active; 'I' for Inactive)
REMARK    1  A    between atoms: C_2  and  O_1 
REMARK    2  A    between atoms: CA_3  and  C_2 
REMARK    3  A    between atoms: C_9  and  C_6 
REMARK    4  A    between atoms: O_12  and  C_9 
ROOT
ATOM      1  CA  UNL d   1     -13.557 -20.840  34.559  0.00  0.00     0.146 A 
ATOM      2  N   UNL d   1     -12.866 -20.989  35.743  0.00  0.00    -0.253 NA
ATOM      3  C   UNL d   1     -12.951 -20.499  33.358  0.00  0.00     0.073 A 
ATOM      4  C   UNL d   1     -11.545 -20.722  35.719  0.00  0.00     0.117 A 
ATOM      5  C   UNL d   1     -11.568 -20.274  33.373  0.00  0.00     0.022 A 
ATOM      6  C   UNL d   1     -10.860 -20.363  34.571  0.00  0.00     0.020 A 
ENDROOT
BRANCH   1   7
ATOM      7  C   UNL d   1     -15.027 -21.037  34.721  0.00  0.00     0.196 C 
ATOM      8  OXT UNL d   1     -15.616 -22.094  34.632  0.00  0.00    -0.645 OA
BRANCH   7   9
ATOM      9  O   UNL d   1     -15.639 -19.833  34.887  0.00  0.00    -0.772 OA
ATOM     10  H   UNL d   1     -15.330 -19.421  35.728  0.00  0.00     0.167 HD
ENDBRANCH   7   9
ENDBRANCH   1   7
BRANCH   3  11
ATOM     11  C   UNL d   1     -13.672 -20.541  32.077  0.00  0.00     0.178 C 
ATOM     12  O   UNL d   1     -14.015 -21.580  31.547  0.00  0.00    -0.646 OA
BRANCH  11  13
ATOM     13  O   UNL d   1     -13.803 -19.330  31.487  0.00  0.00    -0.773 OA
ATOM     14  H   UNL d   1     -12.993 -18.793  31.400  0.00  0.00     0.167 HD
ENDBRANCH  11  13
ENDBRANCH   3  11
TORSDOF 4
ENDMDL
MODEL 4
REMARK VINA RESULT:      -4.8     10.076     11.129
REMARK  4 active torsions:
REMARK  status: ('A' for Active; 'I' for Inactive)
REMARK    1  A    between atoms: C_2  and  O_1 
REMARK    2  A    between atoms: CA_3  and  C_2 
REMARK    3  A    between atoms: C_9  and  C_6 
REMARK    4  A    between atoms: O_12  and  C_9 
ROOT
ATOM      1  CA  UNL d   1      -7.495 -26.354  25.914  0.00  0.00     0.146 A 
ATOM      2  N   UNL d   1      -8.116 -25.824  27.024  0.00  0.00    -0.253 NA
ATOM      3  C   UNL d   1      -7.179 -27.700  25.784  0.00  0.00     0.073 A 
ATOM      4  C   UNL d   1      -8.361 -26.663  28.049  0.00  0.00     0.117 A 
ATOM      5  C   UNL d   1      -7.493 -28.544  26.858  0.00  0.00     0.022 A 
ATOM      6  C   UNL d   1      -8.068 -28.016  28.013  0.00  0.00     0.020 A 
ENDROOT
BRANCH   1   7
ATOM      7  C   UNL d   1      -7.157 -25.320  24.893  0.00  0.00     0.196 C 
ATOM      8  OXT UNL d   1      -7.438 -25.369  23.713  0.00  0.00    -0.645 OA
BRANCH   7   9
ATOM      9  O   UNL d   1      -6.392 -24.346  25.456  0.00  0.00    -0.772 OA
ATOM     10  H   UNL d   1      -5.841 -24.738  26.174  0.00  0.00     0.167 HD
ENDBRANCH   7   9
ENDBRANCH   1   7
BRANCH   3  11
ATOM     11  C   UNL d   1      -6.702 -28.274  24.517  0.00  0.00     0.178 C 
ATOM     12  O   UNL d   1      -5.526 -28.486  24.291  0.00  0.00    -0.646 OA
BRANCH  11  13
ATOM     13  O   UNL d   1      -7.674 -28.425  23.588  0.00  0.00    -0.773 OA
ATOM     14  H   UNL d   1      -7.385 -28.575  22.669  0.00  0.00     0.167 HD
ENDBRANCH  11  13
ENDBRANCH   3  11
TORSDOF 4
ENDMDL
MODEL 5
REMARK VINA RESULT:      -4.8      9.478     10.770
REMARK  4 active torsions:
REMARK  status: ('A' for Active; 'I' for Inactive)
REMARK    1  A    between atoms: C_2  and  O_1 
REMARK    2  A    between atoms: CA_3  and  C_2 
REMARK    3  A    between atoms: C_9  and  C_6 
REMARK    4  A    between atoms: O_12  and  C_9 
ROOT
ATOM      1  CA  UNL d   1      -6.146 -27.087  25.562  0.00  0.00     0.146 A 
ATOM      2  N   UNL d   1      -5.143 -27.998  25.312  0.00  0.00    -0.253 NA
ATOM      3  C   UNL d   1      -6.310 -26.445  26.782  0.00  0.00     0.073 A 
ATOM      4  C   UNL d   1      -4.331 -28.313  26.341  0.00  0.00     0.117 A 
ATOM      5  C   UNL d   1      -5.415 -26.771  27.809  0.00  0.00     0.022 A 
ATOM      6  C   UNL d   1      -4.428 -27.733  27.595  0.00  0.00     0.020 A 
ENDROOT
BRANCH   1   7
ATOM      7  C   UNL d   1      -7.062 -26.904  24.399  0.00  0.00     0.196 C 
ATOM      8  OXT UNL d   1      -8.081 -27.530  24.192  0.00  0.00    -0.645 OA
BRANCH   7   9
ATOM      9  O   UNL d   1      -6.537 -25.992  23.535  0.00  0.00    -0.772 OA
ATOM     10  H   UNL d   1      -5.720 -25.603  23.927  0.00  0.00     0.167 HD
ENDBRANCH   7   9
ENDBRANCH   1   7
BRANCH   3  11
ATOM     11  C   UNL d   1      -7.259 -25.336  26.963  0.00  0.00     0.178 C 
ATOM     12  O   UNL d   1      -8.208 -25.398  27.720  0.00  0.00    -0.646 OA
BRANCH  11  13
ATOM     13  O   UNL d   1      -7.049 -24.299  26.120  0.00  0.00    -0.773 OA
ATOM     14  H   UNL d   1      -7.209 -23.405  26.474  0.00  0.00     0.167 HD
ENDBRANCH  11  13
ENDBRANCH   3  11
TORSDOF 4
ENDMDL
MODEL 6
REMARK VINA RESULT:      -4.7     10.708     11.648
REMARK  4 active torsions:
REMARK  status: ('A' for Active; 'I' for Inactive)
REMARK    1  A    between atoms: C_2  and  O_1 
REMARK    2  A    between atoms: CA_3  and  C_2 
REMARK    3  A    between atoms: C_9  and  C_6 
REMARK    4  A    between atoms: O_12  and  C_9 
ROOT
ATOM      1  CA  UNL d   1      -7.170 -28.174  25.458  0.00  0.00     0.146 A 
ATOM      2  N   UNL d   1      -7.324 -29.167  26.401  0.00  0.00    -0.253 NA
ATOM      3  C   UNL d   1      -7.586 -26.864  25.653  0.00  0.00     0.073 A 
ATOM      4  C   UNL d   1      -7.971 -28.839  27.537  0.00  0.00     0.117 A 
ATOM      5  C   UNL d   1      -8.215 -26.559  26.867  0.00  0.00     0.022 A 
ATOM      6  C   UNL d   1      -8.432 -27.562  27.811  0.00  0.00     0.020 A 
ENDROOT
BRANCH   1   7
ATOM      7  C   UNL d   1      -6.556 -28.671  24.193  0.00  0.00     0.196 C 
ATOM      8  OXT UNL d   1      -5.368 -28.803  23.985  0.00  0.00    -0.645 OA
BRANCH   7   9
ATOM      9  O   UNL d   1      -7.522 -28.864  23.254  0.00  0.00    -0.772 OA
ATOM     10  H   UNL d   1      -8.216 -29.462  23.617  0.00  0.00     0.167 HD
ENDBRANCH   7   9
ENDBRANCH   1   7
BRANCH   3  11
ATOM     11  C   UNL d   1      -7.235 -25.783  24.719  0.00  0.00     0.178 C 
ATOM     12  O   UNL d   1      -6.501 -24.863  25.022  0.00  0.00    -0.646 OA
BRANCH  11  13
ATOM     13  O   UNL d   1      -7.902 -25.844  23.543  0.00  0.00    -0.773 OA
ATOM     14  H   UNL d   1      -8.829 -26.142  23.578  0.00  0.00     0.167 HD
ENDBRANCH  11  13
ENDBRANCH   3  11
TORSDOF 4
ENDMDL
MODEL 7
REMARK VINA RESULT:      -4.7      9.885     11.154
REMARK  4 active torsions:
REMARK  status: ('A' for Active; 'I' for Inactive)
REMARK    1  A    between atoms: C_2  and  O_1 
REMARK    2  A    between atoms: CA_3  and  C_2 
REMARK    3  A    between atoms: C_9  and  C_6 
REMARK    4  A    between atoms: O_12  and  C_9 
ROOT
ATOM      1  CA  UNL d   1      -7.194 -27.069  25.640  0.00  0.00     0.146 A 
ATOM      2  N   UNL d   1      -6.852 -28.214  24.954  0.00  0.00    -0.253 NA
ATOM      3  C   UNL d   1      -7.577 -27.062  26.974  0.00  0.00     0.073 A 
ATOM      4  C   UNL d   1      -6.964 -29.383  25.617  0.00  0.00     0.117 A 
ATOM      5  C   UNL d   1      -7.636 -28.295  27.636  0.00  0.00     0.022 A 
ATOM      6  C   UNL d   1      -7.350 -29.472  26.944  0.00  0.00     0.020 A 
ENDROOT
BRANCH   1   7
ATOM      7  C   UNL d   1      -7.156 -25.850  24.780  0.00  0.00     0.196 C 
ATOM      8  OXT UNL d   1      -6.578 -24.816  25.042  0.00  0.00    -0.645 OA
BRANCH   7   9
ATOM      9  O   UNL d   1      -7.954 -26.025  23.692  0.00  0.00    -0.772 OA
ATOM     10  H   UNL d   1      -8.481 -25.207  23.537  0.00  0.00     0.167 HD
ENDBRANCH   7   9
ENDBRANCH   1   7
BRANCH   3  11
ATOM     11  C   UNL d   1      -7.744 -25.814  27.735  0.00  0.00     0.178 C 
ATOM     12  O   UNL d   1      -8.832 -25.375  28.051  0.00  0.00    -0.646 OA
BRANCH  11  13
ATOM     13  O   UNL d   1      -6.586 -25.143  27.937  0.00  0.00    -0.773 OA
ATOM     14  H   UNL d   1      -5.860 -25.636  28.362  0.00  0.00     0.167 HD
ENDBRANCH  11  13
ENDBRANCH   3  11
TORSDOF 4
ENDMDL
MODEL 8
REMARK VINA RESULT:      -4.5     17.637     19.009
REMARK  4 active torsions:
REMARK  status: ('A' for Active; 'I' for Inactive)
REMARK    1  A    between atoms: C_2  and  O_1 
REMARK    2  A    between atoms: CA_3  and  C_2 
REMARK    3  A    between atoms: C_9  and  C_6 
REMARK    4  A    between atoms: O_12  and  C_9 
ROOT
ATOM      1  CA  UNL d   1     -11.302  -6.341  16.836  0.00  0.00     0.146 A 
ATOM      2  N   UNL d   1     -10.048  -5.859  16.528  0.00  0.00    -0.253 NA
ATOM      3  C   UNL d   1     -12.334  -5.541  17.308  0.00  0.00     0.073 A 
ATOM      4  C   UNL d   1      -9.817  -4.553  16.766  0.00  0.00     0.117 A 
ATOM      5  C   UNL d   1     -12.061  -4.180  17.498  0.00  0.00     0.022 A 
ATOM      6  C   UNL d   1     -10.782  -3.683  17.247  0.00  0.00     0.020 A 
ENDROOT
BRANCH   1   7
ATOM      7  C   UNL d   1     -11.412  -7.818  16.655  0.00  0.00     0.196 C 
ATOM      8  OXT UNL d   1     -12.182  -8.385  15.907  0.00  0.00    -0.645 OA
BRANCH   7   9
ATOM      9  O   UNL d   1     -10.587  -8.454  17.530  0.00  0.00    -0.772 OA
ATOM     10  H   UNL d   1     -10.967  -9.336  17.754  0.00  0.00     0.167 HD
ENDBRANCH   7   9
ENDBRANCH   1   7
BRANCH   3  11
ATOM     11  C   UNL d   1     -13.712  -6.037  17.439  0.00  0.00     0.178 C 
ATOM     12  O   UNL d   1     -14.568  -5.833  16.601  0.00  0.00    -0.646 OA
BRANCH  11  13
ATOM     13  O   UNL d   1     -13.966  -6.625  18.631  0.00  0.00    -0.773 OA
ATOM     14  H   UNL d   1     -13.732  -7.568  18.714  0.00  0.00     0.167 HD
ENDBRANCH  11  13
ENDBRANCH   3  11
TORSDOF 4
ENDMDL
MODEL 9
REMARK VINA RESULT:      -4.4      2.562      3.595
REMARK  4 active torsions:
REMARK  status: ('A' for Active; 'I' for Inactive)
REMARK    1  A    between atoms: C_2  and  O_1 
REMARK    2  A    between atoms: CA_3  and  C_2 
REMARK    3  A    between atoms: C_9  and  C_6 
REMARK    4  A    between atoms: O_12  and  C_9 
ROOT
ATOM      1  CA  UNL d   1      -5.403 -18.202  30.031  0.00  0.00     0.146 A 
ATOM      2  N   UNL d   1      -4.163 -18.251  29.433  0.00  0.00    -0.253 NA
ATOM      3  C   UNL d   1      -6.334 -17.203  29.781  0.00  0.00     0.073 A 
ATOM      4  C   UNL d   1      -3.836 -17.231  28.615  0.00  0.00     0.117 A 
ATOM      5  C   UNL d   1      -5.967 -16.187  28.888  0.00  0.00     0.022 A 
ATOM      6  C   UNL d   1      -4.695 -16.187  28.317  0.00  0.00     0.020 A 
ENDROOT
BRANCH   1   7
ATOM      7  C   UNL d   1      -5.615 -19.307  31.011  0.00  0.00     0.196 C 
ATOM      8  OXT UNL d   1      -5.893 -20.456  30.735  0.00  0.00    -0.645 OA
BRANCH   7   9
ATOM      9  O   UNL d   1      -5.550 -18.820  32.280  0.00  0.00    -0.772 OA
ATOM     10  H   UNL d   1      -6.159 -18.049  32.365  0.00  0.00     0.167 HD
ENDBRANCH   7   9
ENDBRANCH   1   7
BRANCH   3  11
ATOM     11  C   UNL d   1      -7.717 -17.279  30.275  0.00  0.00     0.178 C 
ATOM     12  O   UNL d   1      -8.657 -17.569  29.560  0.00  0.00    -0.646 OA
BRANCH  11  13
ATOM     13  O   UNL d   1      -7.859 -16.875  31.558  0.00  0.00    -0.773 OA
ATOM     14  H   UNL d   1      -8.675 -16.389  31.779  0.00  0.00     0.167 HD
ENDBRANCH  11  13
ENDBRANCH   3  11
TORSDOF 4
ENDMDL
