MODEL 1
REMARK VINA RESULT:      -4.5      0.000      0.000
REMARK  6 active torsions:
REMARK  status: ('A' for Active; 'I' for Inactive)
REMARK    1  A    between atoms: O_1  and  C_2 
REMARK    2  A    between atoms: C_2  and  C_3 
REMARK    3  A    between atoms: C_3  and  C_5 
REMARK    4  A    between atoms: C_5  and  C_6 
REMARK    5  A    between atoms: C_6  and  C_7 
REMARK    6  A    between atoms: C_7  and  O_10 
ROOT
ATOM      1  C   UNL d   1      29.946  -4.397 -23.656  0.00  0.00     0.101 C 
ENDROOT
BRANCH   1   2
ATOM      2  C   UNL d   1      29.311  -5.768 -23.444  0.00  0.00     0.118 C 
BRANCH   2   3
ATOM      3  C   UNL d   1      29.575  -6.674 -24.622  0.00  0.00     0.139 C 
ATOM      4  O   UNL d   1      29.717  -7.884 -24.553  0.00  0.00    -0.650 OA
BRANCH   3   5
ATOM      5  O   UNL d   1      29.641  -6.004 -25.793  0.00  0.00    -0.776 OA
ATOM      6  H   UNL d   1      29.703  -5.034 -25.701  0.00  0.00     0.167 HD
ENDBRANCH   3   5
ENDBRANCH   2   3
ENDBRANCH   1   2
BRANCH   1   7
ATOM      7  C   UNL d   1      31.439  -4.425 -23.451  0.00  0.00     0.222 C 
ATOM      8  O   UNL d   1      32.027  -4.967 -22.520  0.00  0.00    -0.286 OA
BRANCH   7   9
ATOM      9  C   UNL d   1      32.283  -3.710 -24.508  0.00  0.00     0.213 C 
ATOM     10  O   UNL d   1      33.077  -2.831 -24.239  0.00  0.00    -0.644 OA
BRANCH   9  11
ATOM     11  O   UNL d   1      32.026  -4.186 -25.739  0.00  0.00    -0.771 OA
ATOM     12  H   UNL d   1      31.290  -4.841 -25.697  0.00  0.00     0.168 HD
ENDBRANCH   9  11
ENDBRANCH   7   9
ENDBRANCH   1   7
TORSDOF 6
ENDMDL
MODEL 2
REMARK VINA RESULT:      -4.4      2.259      3.588
REMARK  6 active torsions:
REMARK  status: ('A' for Active; 'I' for Inactive)
REMARK    1  A    between atoms: O_1  and  C_2 
REMARK    2  A    between atoms: C_2  and  C_3 
REMARK    3  A    between atoms: C_3  and  C_5 
REMARK    4  A    between atoms: C_5  and  C_6 
REMARK    5  A    between atoms: C_6  and  C_7 
REMARK    6  A    between atoms: C_7  and  O_10 
ROOT
ATOM      1  C   UNL d   1      29.540  -6.162 -22.297  0.00  0.00     0.101 C 
ENDROOT
BRANCH   1   2
ATOM      2  C   UNL d   1      29.263  -5.223 -23.468  0.00  0.00     0.118 C 
BRANCH   2   3
ATOM      3  C   UNL d   1      29.810  -5.789 -24.756  0.00  0.00     0.139 C 
ATOM      4  O   UNL d   1      29.254  -6.633 -25.439  0.00  0.00    -0.650 OA
BRANCH   3   5
ATOM      5  O   UNL d   1      31.006  -5.258 -25.094  0.00  0.00    -0.776 OA
ATOM      6  H   UNL d   1      31.616  -5.126 -24.343  0.00  0.00     0.167 HD
ENDBRANCH   3   5
ENDBRANCH   2   3
ENDBRANCH   1   2
BRANCH   1   7
ATOM      7  C   UNL d   1      30.801  -5.791 -21.559  0.00  0.00     0.222 C 
ATOM      8  O   UNL d   1      31.901  -5.597 -22.067  0.00  0.00    -0.286 OA
BRANCH   7   9
ATOM      9  C   UNL d   1      30.680  -5.644 -20.041  0.00  0.00     0.213 C 
ATOM     10  O   UNL d   1      29.998  -6.379 -19.356  0.00  0.00    -0.644 OA
BRANCH   9  11
ATOM     11  O   UNL d   1      31.420  -4.614 -19.591  0.00  0.00    -0.771 OA
ATOM     12  H   UNL d   1      30.830  -3.917 -19.220  0.00  0.00     0.168 HD
ENDBRANCH   9  11
ENDBRANCH   7   9
ENDBRANCH   1   7
TORSDOF 6
ENDMDL
MODEL 3
REMARK VINA RESULT:      -4.2      1.803      2.680
REMARK  6 active torsions:
REMARK  status: ('A' for Active; 'I' for Inactive)
REMARK    1  A    between atoms: O_1  and  C_2 
REMARK    2  A    between atoms: C_2  and  C_3 
REMARK    3  A    between atoms: C_3  and  C_5 
REMARK    4  A    between atoms: C_5  and  C_6 
REMARK    5  A    between atoms: C_6  and  C_7 
REMARK    6  A    between atoms: C_7  and  O_10 
ROOT
ATOM      1  C   UNL d   1      30.133  -3.429 -25.255  0.00  0.00     0.101 C 
ENDROOT
BRANCH   1   2
ATOM      2  C   UNL d   1      30.047  -4.941 -25.067  0.00  0.00     0.118 C 
BRANCH   2   3
ATOM      3  C   UNL d   1      29.906  -5.298 -23.608  0.00  0.00     0.139 C 
ATOM      4  O   UNL d   1      30.808  -5.716 -22.901  0.00  0.00    -0.650 OA
BRANCH   3   5
ATOM      5  O   UNL d   1      28.651  -5.108 -23.142  0.00  0.00    -0.776 OA
ATOM      6  H   UNL d   1      28.472  -5.528 -22.280  0.00  0.00     0.167 HD
ENDBRANCH   3   5
ENDBRANCH   2   3
ENDBRANCH   1   2
BRANCH   1   7
ATOM      7  C   UNL d   1      31.230  -3.037 -26.212  0.00  0.00     0.222 C 
ATOM      8  O   UNL d   1      31.071  -2.548 -27.326  0.00  0.00    -0.286 OA
BRANCH   7   9
ATOM      9  C   UNL d   1      32.663  -3.276 -25.734  0.00  0.00     0.213 C 
ATOM     10  O   UNL d   1      33.111  -2.792 -24.714  0.00  0.00    -0.644 OA
BRANCH   9  11
ATOM     11  O   UNL d   1      33.332  -4.077 -26.583  0.00  0.00    -0.771 OA
ATOM     12  H   UNL d   1      34.254  -4.209 -26.261  0.00  0.00     0.168 HD
ENDBRANCH   9  11
ENDBRANCH   7   9
ENDBRANCH   1   7
TORSDOF 6
ENDMDL
MODEL 4
REMARK VINA RESULT:      -4.1      1.901      4.283
REMARK  6 active torsions:
REMARK  status: ('A' for Active; 'I' for Inactive)
REMARK    1  A    between atoms: O_1  and  C_2 
REMARK    2  A    between atoms: C_2  and  C_3 
REMARK    3  A    between atoms: C_3  and  C_5 
REMARK    4  A    between atoms: C_5  and  C_6 
REMARK    5  A    between atoms: C_6  and  C_7 
REMARK    6  A    between atoms: C_7  and  O_10 
ROOT
ATOM      1  C   UNL d   1      30.674  -3.680 -23.695  0.00  0.00     0.101 C 
ENDROOT
BRANCH   1   2
ATOM      2  C   UNL d   1      31.609  -3.825 -24.892  0.00  0.00     0.118 C 
BRANCH   2   3
ATOM      3  C   UNL d   1      32.699  -2.781 -24.859  0.00  0.00     0.139 C 
ATOM      4  O   UNL d   1      32.904  -1.959 -25.737  0.00  0.00    -0.650 OA
BRANCH   3   5
ATOM      5  O   UNL d   1      33.446  -2.842 -23.735  0.00  0.00    -0.776 OA
ATOM      6  H   UNL d   1      34.229  -2.259 -23.738  0.00  0.00     0.167 HD
ENDBRANCH   3   5
ENDBRANCH   2   3
ENDBRANCH   1   2
BRANCH   1   7
ATOM      7  C   UNL d   1      30.781  -4.847 -22.747  0.00  0.00     0.222 C 
ATOM      8  O   UNL d   1      31.823  -5.357 -22.349  0.00  0.00    -0.286 OA
BRANCH   7   9
ATOM      9  C   UNL d   1      29.461  -5.436 -22.246  0.00  0.00     0.213 C 
ATOM     10  O   UNL d   1      29.326  -5.909 -21.136  0.00  0.00    -0.644 OA
BRANCH   9  11
ATOM     11  O   UNL d   1      28.502  -5.352 -23.186  0.00  0.00    -0.771 OA
ATOM     12  H   UNL d   1      28.016  -4.500 -23.092  0.00  0.00     0.168 HD
ENDBRANCH   9  11
ENDBRANCH   7   9
ENDBRANCH   1   7
TORSDOF 6
ENDMDL
MODEL 5
REMARK VINA RESULT:      -4.1     14.840     15.773
REMARK  6 active torsions:
REMARK  status: ('A' for Active; 'I' for Inactive)
REMARK    1  A    between atoms: O_1  and  C_2 
REMARK    2  A    between atoms: C_2  and  C_3 
REMARK    3  A    between atoms: C_3  and  C_5 
REMARK    4  A    between atoms: C_5  and  C_6 
REMARK    5  A    between atoms: C_6  and  C_7 
REMARK    6  A    between atoms: C_7  and  O_10 
ROOT
ATOM      1  C   UNL d   1      20.316 -11.580 -16.560  0.00  0.00     0.101 C 
ENDROOT
BRANCH   1   2
ATOM      2  C   UNL d   1      18.994 -11.459 -17.312  0.00  0.00     0.118 C 
BRANCH   2   3
ATOM      3  C   UNL d   1      18.265 -10.195 -16.926  0.00  0.00     0.139 C 
ATOM      4  O   UNL d   1      18.758  -9.266 -16.308  0.00  0.00    -0.650 OA
BRANCH   3   5
ATOM      5  O   UNL d   1      16.979 -10.187 -17.341  0.00  0.00    -0.776 OA
ATOM      6  H   UNL d   1      16.429  -9.486 -16.941  0.00  0.00     0.167 HD
ENDBRANCH   3   5
ENDBRANCH   2   3
ENDBRANCH   1   2
BRANCH   1   7
ATOM      7  C   UNL d   1      20.124 -12.074 -15.149  0.00  0.00     0.222 C 
ATOM      8  O   UNL d   1      19.642 -13.156 -14.826  0.00  0.00    -0.286 OA
BRANCH   7   9
ATOM      9  C   UNL d   1      20.577 -11.132 -14.032  0.00  0.00     0.213 C 
ATOM     10  O   UNL d   1      20.551 -11.437 -12.857  0.00  0.00    -0.644 OA
BRANCH   9  11
ATOM     11  O   UNL d   1      20.997  -9.955 -14.530  0.00  0.00    -0.771 OA
ATOM     12  H   UNL d   1      20.860  -9.937 -15.506  0.00  0.00     0.168 HD
ENDBRANCH   9  11
ENDBRANCH   7   9
ENDBRANCH   1   7
TORSDOF 6
ENDMDL
MODEL 6
REMARK VINA RESULT:      -4.1     23.688     24.785
REMARK  6 active torsions:
REMARK  status: ('A' for Active; 'I' for Inactive)
REMARK    1  A    between atoms: O_1  and  C_2 
REMARK    2  A    between atoms: C_2  and  C_3 
REMARK    3  A    between atoms: C_3  and  C_5 
REMARK    4  A    between atoms: C_5  and  C_6 
REMARK    5  A    between atoms: C_6  and  C_7 
REMARK    6  A    between atoms: C_7  and  O_10 
ROOT
ATOM      1  C   UNL d   1      10.822   2.735 -38.596  0.00  0.00     0.101 C 
ENDROOT
BRANCH   1   2
ATOM      2  C   UNL d   1      10.395   1.350 -38.118  0.00  0.00     0.118 C 
BRANCH   2   3
ATOM      3  C   UNL d   1      10.618   0.313 -39.192  0.00  0.00     0.139 C 
ATOM      4  O   UNL d   1       9.732  -0.285 -39.779  0.00  0.00    -0.650 OA
BRANCH   3   5
ATOM      5  O   UNL d   1      11.928   0.102 -39.450  0.00  0.00    -0.776 OA
ATOM      6  H   UNL d   1      12.435  -0.262 -38.700  0.00  0.00     0.167 HD
ENDBRANCH   3   5
ENDBRANCH   2   3
ENDBRANCH   1   2
BRANCH   1   7
ATOM      7  C   UNL d   1      11.799   3.386 -37.650  0.00  0.00     0.222 C 
ATOM      8  O   UNL d   1      11.780   4.559 -37.293  0.00  0.00    -0.286 OA
BRANCH   7   9
ATOM      9  C   UNL d   1      12.905   2.488 -37.094  0.00  0.00     0.213 C 
ATOM     10  O   UNL d   1      13.775   2.000 -37.788  0.00  0.00    -0.644 OA
BRANCH   9  11
ATOM     11  O   UNL d   1      12.778   2.326 -35.765  0.00  0.00    -0.771 OA
ATOM     12  H   UNL d   1      12.132   2.980 -35.409  0.00  0.00     0.168 HD
ENDBRANCH   9  11
ENDBRANCH   7   9
ENDBRANCH   1   7
TORSDOF 6
ENDMDL
MODEL 7
REMARK VINA RESULT:      -4.1      1.542      2.028
REMARK  6 active torsions:
REMARK  status: ('A' for Active; 'I' for Inactive)
REMARK    1  A    between atoms: O_1  and  C_2 
REMARK    2  A    between atoms: C_2  and  C_3 
REMARK    3  A    between atoms: C_3  and  C_5 
REMARK    4  A    between atoms: C_5  and  C_6 
REMARK    5  A    between atoms: C_6  and  C_7 
REMARK    6  A    between atoms: C_7  and  O_10 
ROOT
ATOM      1  C   UNL d   1      30.564  -3.981 -23.403  0.00  0.00     0.101 C 
ENDROOT
BRANCH   1   2
ATOM      2  C   UNL d   1      30.309  -4.825 -24.649  0.00  0.00     0.118 C 
BRANCH   2   3
ATOM      3  C   UNL d   1      29.243  -5.862 -24.391  0.00  0.00     0.139 C 
ATOM      4  O   UNL d   1      29.078  -6.873 -25.055  0.00  0.00    -0.650 OA
BRANCH   3   5
ATOM      5  O   UNL d   1      28.466  -5.560 -23.327  0.00  0.00    -0.776 OA
ATOM      6  H   UNL d   1      27.681  -5.021 -23.540  0.00  0.00     0.167 HD
ENDBRANCH   3   5
ENDBRANCH   2   3
ENDBRANCH   1   2
BRANCH   1   7
ATOM      7  C   UNL d   1      31.778  -4.447 -22.641  0.00  0.00     0.222 C 
ATOM      8  O   UNL d   1      31.908  -5.537 -22.092  0.00  0.00    -0.286 OA
BRANCH   7   9
ATOM      9  C   UNL d   1      32.945  -3.462 -22.556  0.00  0.00     0.213 C 
ATOM     10  O   UNL d   1      33.021  -2.464 -23.245  0.00  0.00    -0.644 OA
BRANCH   9  11
ATOM     11  O   UNL d   1      33.845  -3.851 -21.635  0.00  0.00    -0.771 OA
ATOM     12  H   UNL d   1      34.270  -4.694 -21.918  0.00  0.00     0.168 HD
ENDBRANCH   9  11
ENDBRANCH   7   9
ENDBRANCH   1   7
TORSDOF 6
ENDMDL
MODEL 8
REMARK VINA RESULT:      -4.0     24.252     25.405
REMARK  6 active torsions:
REMARK  status: ('A' for Active; 'I' for Inactive)
REMARK    1  A    between atoms: O_1  and  C_2 
REMARK    2  A    between atoms: C_2  and  C_3 
REMARK    3  A    between atoms: C_3  and  C_5 
REMARK    4  A    between atoms: C_5  and  C_6 
REMARK    5  A    between atoms: C_6  and  C_7 
REMARK    6  A    between atoms: C_7  and  O_10 
ROOT
ATOM      1  C   UNL d   1      10.191   0.934 -37.806  0.00  0.00     0.101 C 
ENDROOT
BRANCH   1   2
ATOM      2  C   UNL d   1       9.423   2.171 -38.264  0.00  0.00     0.118 C 
BRANCH   2   3
ATOM      3  C   UNL d   1       8.650   2.782 -37.120  0.00  0.00     0.139 C 
ATOM      4  O   UNL d   1       7.759   3.607 -37.242  0.00  0.00    -0.650 OA
BRANCH   3   5
ATOM      5  O   UNL d   1       9.047   2.319 -35.915  0.00  0.00    -0.776 OA
ATOM      6  H   UNL d   1       9.314   3.013 -35.282  0.00  0.00     0.167 HD
ENDBRANCH   3   5
ENDBRANCH   2   3
ENDBRANCH   1   2
BRANCH   1   7
ATOM      7  C   UNL d   1      11.677   1.080 -38.016  0.00  0.00     0.222 C 
ATOM      8  O   UNL d   1      12.417   0.242 -38.522  0.00  0.00    -0.286 OA
BRANCH   7   9
ATOM      9  C   UNL d   1      12.302   2.396 -37.551  0.00  0.00     0.213 C 
ATOM     10  O   UNL d   1      12.168   2.833 -36.426  0.00  0.00    -0.644 OA
BRANCH   9  11
ATOM     11  O   UNL d   1      13.001   2.979 -38.542  0.00  0.00    -0.771 OA
ATOM     12  H   UNL d   1      13.871   2.526 -38.647  0.00  0.00     0.168 HD
ENDBRANCH   9  11
ENDBRANCH   7   9
ENDBRANCH   1   7
TORSDOF 6
ENDMDL
MODEL 9
REMARK VINA RESULT:      -3.9     14.012     15.362
REMARK  6 active torsions:
REMARK  status: ('A' for Active; 'I' for Inactive)
REMARK    1  A    between atoms: O_1  and  C_2 
REMARK    2  A    between atoms: C_2  and  C_3 
REMARK    3  A    between atoms: C_3  and  C_5 
REMARK    4  A    between atoms: C_5  and  C_6 
REMARK    5  A    between atoms: C_6  and  C_7 
REMARK    6  A    between atoms: C_7  and  O_10 
ROOT
ATOM      1  C   UNL d   1      19.976 -11.135 -15.107  0.00  0.00     0.101 C 
ENDROOT
BRANCH   1   2
ATOM      2  C   UNL d   1      20.767 -12.437 -15.016  0.00  0.00     0.118 C 
BRANCH   2   3
ATOM      3  C   UNL d   1      22.251 -12.175 -15.087  0.00  0.00     0.139 C 
ATOM      4  O   UNL d   1      23.054 -12.472 -14.218  0.00  0.00    -0.650 OA
BRANCH   3   5
ATOM      5  O   UNL d   1      22.620 -11.563 -16.234  0.00  0.00    -0.776 OA
ATOM      6  H   UNL d   1      22.713 -10.594 -16.165  0.00  0.00     0.167 HD
ENDBRANCH   3   5
ENDBRANCH   2   3
ENDBRANCH   1   2
BRANCH   1   7
ATOM      7  C   UNL d   1      19.342 -10.950 -16.463  0.00  0.00     0.222 C 
ATOM      8  O   UNL d   1      19.715 -11.474 -17.508  0.00  0.00    -0.286 OA
BRANCH   7   9
ATOM      9  C   UNL d   1      18.125 -10.025 -16.522  0.00  0.00     0.213 C 
ATOM     10  O   UNL d   1      17.512  -9.801 -17.546  0.00  0.00    -0.644 OA
BRANCH   9  11
ATOM     11  O   UNL d   1      17.843  -9.514 -15.310  0.00  0.00    -0.771 OA
ATOM     12  H   UNL d   1      18.175  -8.588 -15.252  0.00  0.00     0.168 HD
ENDBRANCH   9  11
ENDBRANCH   7   9
ENDBRANCH   1   7
TORSDOF 6
ENDMDL
