MODEL 1
REMARK VINA RESULT:      -5.1      0.000      0.000
REMARK  13 active torsions:
REMARK  status: ('A' for Active; 'I' for Inactive)
REMARK    1  A    between atoms: C_2  and  O_1 
REMARK    2  A    between atoms: C_3  and  C_5 
REMARK    3  A    between atoms: C_4  and  O_7 
REMARK    4  A    between atoms: C_5  and  O_9 
REMARK    5  A    between atoms: C_8  and  C_11 
REMARK    6  A    between atoms: C_8  and  O_10 
REMARK    7  A    between atoms: O_9  and  P_12 
REMARK    8  A    between atoms: C_11  and  O_13 
REMARK    9  A    between atoms: P_12  and  O_15 
REMARK   10  A    between atoms: P_12  and  O_16 
REMARK   11  A    between atoms: O_13  and  P_17 
REMARK   12  A    between atoms: P_17  and  O_19 
REMARK   13  A    between atoms: P_17  and  O_20 
ROOT
ATOM      1  C   UNL d   1     -30.175  37.656  11.263  0.00  0.00     0.183 C 
ATOM      2  C   UNL d   1     -29.645  37.095  12.582  0.00  0.00     0.181 C 
ATOM      3  C   UNL d   1     -28.924  37.886  10.418  0.00  0.00     0.213 C 
ATOM      4  O   UNL d   1     -28.326  37.646  12.754  0.00  0.00    -0.341 OA
ATOM      5  C   UNL d   1     -27.781  37.973  11.474  0.00  0.00     0.213 C 
ENDROOT
BRANCH   5   6
ATOM      6  C   UNL d   1     -26.581  37.057  11.241  0.00  0.00     0.251 C 
BRANCH   6   7
ATOM      7  O   UNL d   1     -25.898  37.391  10.044  0.00  0.00    -0.292 OA
BRANCH   7   8
ATOM      8  P   UNL d   1     -25.276  36.187   9.200  0.00  0.00     0.390 P 
ATOM      9  O   UNL d   1     -24.177  35.419   9.838  0.00  0.00    -0.632 OA
BRANCH   8  10
ATOM     10  O   UNL d   1     -26.541  35.279   8.841  0.00  0.00    -0.307 OA
ATOM     11  H   UNL d   1     -26.382  34.373   9.156  0.00  0.00     0.222 HD
ENDBRANCH   8  10
BRANCH   8  12
ATOM     12  O   UNL d   1     -24.904  36.858   7.811  0.00  0.00    -0.307 OA
ATOM     13  H   UNL d   1     -25.320  37.727   7.711  0.00  0.00     0.222 HD
ENDBRANCH   8  12
ENDBRANCH   7   8
ENDBRANCH   6   7
ENDBRANCH   5   6
BRANCH   5  14
ATOM     14  O   UNL d   1     -27.304  39.311  11.567  0.00  0.00    -0.362 OA
ATOM     15  H   UNL d   1     -26.349  39.264  11.396  0.00  0.00     0.213 HD
ENDBRANCH   5  14
BRANCH   3  16
ATOM     16  O   UNL d   1     -28.833  36.870   9.418  0.00  0.00    -0.387 OA
ATOM     17  H   UNL d   1     -28.473  36.043   9.773  0.00  0.00     0.210 HD
ENDBRANCH   3  16
BRANCH   1  18
ATOM     18  O   UNL d   1     -30.819  38.914  11.502  0.00  0.00    -0.390 OA
ATOM     19  H   UNL d   1     -30.278  39.398  12.152  0.00  0.00     0.210 HD
ENDBRANCH   1  18
BRANCH   2  20
ATOM     20  C   UNL d   1     -29.545  35.564  12.590  0.00  0.00     0.215 C 
BRANCH  20  21
ATOM     21  O   UNL d   1     -30.415  35.031  11.593  0.00  0.00    -0.294 OA
BRANCH  21  22
ATOM     22  P   UNL d   1     -29.831  33.571  10.871  0.00  0.00     0.390 P 
ATOM     23  O   UNL d   1     -29.308  32.265  10.224  0.00  0.00    -0.632 OA
BRANCH  22  24
ATOM     24  O   UNL d   1     -31.350  32.984  10.991  0.00  0.00    -0.307 OA
ATOM     25  H   UNL d   1     -31.752  33.096  10.106  0.00  0.00     0.222 HD
ENDBRANCH  22  24
BRANCH  22  26
ATOM     26  O   UNL d   1     -30.081  34.325   9.441  0.00  0.00    -0.307 OA
ATOM     27  H   UNL d   1     -29.400  35.017   9.353  0.00  0.00     0.222 HD
ENDBRANCH  22  26
ENDBRANCH  21  22
ENDBRANCH  20  21
ENDBRANCH   2  20
TORSDOF 13
ENDMDL
MODEL 2
REMARK VINA RESULT:      -5.0      2.635      5.057
REMARK  13 active torsions:
REMARK  status: ('A' for Active; 'I' for Inactive)
REMARK    1  A    between atoms: C_2  and  O_1 
REMARK    2  A    between atoms: C_3  and  C_5 
REMARK    3  A    between atoms: C_4  and  O_7 
REMARK    4  A    between atoms: C_5  and  O_9 
REMARK    5  A    between atoms: C_8  and  C_11 
REMARK    6  A    between atoms: C_8  and  O_10 
REMARK    7  A    between atoms: O_9  and  P_12 
REMARK    8  A    between atoms: C_11  and  O_13 
REMARK    9  A    between atoms: P_12  and  O_15 
REMARK   10  A    between atoms: P_12  and  O_16 
REMARK   11  A    between atoms: O_13  and  P_17 
REMARK   12  A    between atoms: P_17  and  O_19 
REMARK   13  A    between atoms: P_17  and  O_20 
ROOT
ATOM      1  C   UNL d   1     -32.274  34.348  11.585  0.00  0.00     0.183 C 
ATOM      2  C   UNL d   1     -31.145  33.877  12.501  0.00  0.00     0.181 C 
ATOM      3  C   UNL d   1     -32.709  35.687  12.177  0.00  0.00     0.213 C 
ATOM      4  O   UNL d   1     -31.421  34.431  13.800  0.00  0.00    -0.341 OA
ATOM      5  C   UNL d   1     -32.207  35.616  13.650  0.00  0.00     0.213 C 
ENDROOT
BRANCH   5   6
ATOM      6  C   UNL d   1     -31.357  36.791  14.128  0.00  0.00     0.251 C 
BRANCH   6   7
ATOM      7  O   UNL d   1     -30.507  37.269  13.099  0.00  0.00    -0.292 OA
BRANCH   7   8
ATOM      8  P   UNL d   1     -29.172  38.021  13.547  0.00  0.00     0.390 P 
ATOM      9  O   UNL d   1     -27.998  37.169  13.866  0.00  0.00    -0.632 OA
BRANCH   8  10
ATOM     10  O   UNL d   1     -28.891  39.044  12.352  0.00  0.00    -0.307 OA
ATOM     11  H   UNL d   1     -28.430  38.576  11.635  0.00  0.00     0.222 HD
ENDBRANCH   8  10
BRANCH   8  12
ATOM     12  O   UNL d   1     -29.653  38.965  14.728  0.00  0.00    -0.307 OA
ATOM     13  H   UNL d   1     -30.357  39.566  14.442  0.00  0.00     0.222 HD
ENDBRANCH   8  12
ENDBRANCH   7   8
ENDBRANCH   6   7
ENDBRANCH   5   6
BRANCH   5  14
ATOM     14  O   UNL d   1     -33.313  35.482  14.536  0.00  0.00    -0.362 OA
ATOM     15  H   UNL d   1     -34.082  35.295  13.974  0.00  0.00     0.213 HD
ENDBRANCH   5  14
BRANCH   3  16
ATOM     16  O   UNL d   1     -32.220  36.751  11.356  0.00  0.00    -0.387 OA
ATOM     17  H   UNL d   1     -32.882  37.448  11.235  0.00  0.00     0.210 HD
ENDBRANCH   3  16
BRANCH   1  18
ATOM     18  O   UNL d   1     -33.367  33.425  11.658  0.00  0.00    -0.390 OA
ATOM     19  H   UNL d   1     -33.973  33.634  10.924  0.00  0.00     0.210 HD
ENDBRANCH   1  18
BRANCH   2  20
ATOM     20  C   UNL d   1     -29.759  34.353  12.045  0.00  0.00     0.215 C 
BRANCH  20  21
ATOM     21  O   UNL d   1     -29.839  34.807  10.694  0.00  0.00    -0.294 OA
BRANCH  21  22
ATOM     22  P   UNL d   1     -28.487  35.770  10.205  0.00  0.00     0.390 P 
ATOM     23  O   UNL d   1     -27.278  36.632   9.767  0.00  0.00    -0.632 OA
BRANCH  22  24
ATOM     24  O   UNL d   1     -28.793  35.299   8.672  0.00  0.00    -0.307 OA
ATOM     25  H   UNL d   1     -29.768  35.307   8.577  0.00  0.00     0.222 HD
ENDBRANCH  22  24
BRANCH  22  26
ATOM     26  O   UNL d   1     -29.543  37.018  10.184  0.00  0.00    -0.307 OA
ATOM     27  H   UNL d   1     -29.104  37.765   9.737  0.00  0.00     0.222 HD
ENDBRANCH  22  26
ENDBRANCH  21  22
ENDBRANCH  20  21
ENDBRANCH   2  20
TORSDOF 13
ENDMDL
MODEL 3
REMARK VINA RESULT:      -4.9      3.920      7.067
REMARK  13 active torsions:
REMARK  status: ('A' for Active; 'I' for Inactive)
REMARK    1  A    between atoms: C_2  and  O_1 
REMARK    2  A    between atoms: C_3  and  C_5 
REMARK    3  A    between atoms: C_4  and  O_7 
REMARK    4  A    between atoms: C_5  and  O_9 
REMARK    5  A    between atoms: C_8  and  C_11 
REMARK    6  A    between atoms: C_8  and  O_10 
REMARK    7  A    between atoms: O_9  and  P_12 
REMARK    8  A    between atoms: C_11  and  O_13 
REMARK    9  A    between atoms: P_12  and  O_15 
REMARK   10  A    between atoms: P_12  and  O_16 
REMARK   11  A    between atoms: O_13  and  P_17 
REMARK   12  A    between atoms: P_17  and  O_19 
REMARK   13  A    between atoms: P_17  and  O_20 
ROOT
ATOM      1  C   UNL d   1     -30.702  35.700  16.652  0.00  0.00     0.183 C 
ATOM      2  C   UNL d   1     -30.999  36.903  15.757  0.00  0.00     0.181 C 
ATOM      3  C   UNL d   1     -31.595  34.589  16.103  0.00  0.00     0.213 C 
ATOM      4  O   UNL d   1     -32.358  36.748  15.310  0.00  0.00    -0.341 OA
ATOM      5  C   UNL d   1     -32.706  35.362  15.332  0.00  0.00     0.213 C 
ENDROOT
BRANCH   5   6
ATOM      6  C   UNL d   1     -32.945  34.928  13.887  0.00  0.00     0.251 C 
BRANCH   6   7
ATOM      7  O   UNL d   1     -34.214  35.355  13.421  0.00  0.00    -0.292 OA
BRANCH   7   8
ATOM      8  P   UNL d   1     -34.636  34.911  11.946  0.00  0.00     0.390 P 
ATOM      9  O   UNL d   1     -36.077  34.636  11.715  0.00  0.00    -0.632 OA
BRANCH   8  10
ATOM     10  O   UNL d   1     -34.071  36.084  11.019  0.00  0.00    -0.307 OA
ATOM     11  H   UNL d   1     -33.826  36.841  11.577  0.00  0.00     0.222 HD
ENDBRANCH   8  10
BRANCH   8  12
ATOM     12  O   UNL d   1     -33.664  33.697  11.629  0.00  0.00    -0.307 OA
ATOM     13  H   UNL d   1     -33.916  33.242  10.812  0.00  0.00     0.222 HD
ENDBRANCH   8  12
ENDBRANCH   7   8
ENDBRANCH   6   7
ENDBRANCH   5   6
BRANCH   5  14
ATOM     14  O   UNL d   1     -33.942  35.266  16.031  0.00  0.00    -0.362 OA
ATOM     15  H   UNL d   1     -34.624  35.558  15.405  0.00  0.00     0.213 HD
ENDBRANCH   5  14
BRANCH   3  16
ATOM     16  O   UNL d   1     -30.797  33.657  15.370  0.00  0.00    -0.387 OA
ATOM     17  H   UNL d   1     -31.310  32.884  15.090  0.00  0.00     0.210 HD
ENDBRANCH   3  16
BRANCH   1  18
ATOM     18  O   UNL d   1     -31.093  35.997  17.998  0.00  0.00    -0.390 OA
ATOM     19  H   UNL d   1     -30.281  36.198  18.498  0.00  0.00     0.210 HD
ENDBRANCH   1  18
BRANCH   2  20
ATOM     20  C   UNL d   1     -30.081  36.983  14.529  0.00  0.00     0.215 C 
BRANCH  20  21
ATOM     21  O   UNL d   1     -30.801  37.561  13.441  0.00  0.00    -0.294 OA
BRANCH  21  22
ATOM     22  P   UNL d   1     -29.965  37.470  11.929  0.00  0.00     0.390 P 
ATOM     23  O   UNL d   1     -29.216  37.390  10.576  0.00  0.00    -0.632 OA
BRANCH  22  24
ATOM     24  O   UNL d   1     -31.412  37.651  11.195  0.00  0.00    -0.307 OA
ATOM     25  H   UNL d   1     -31.764  38.512  11.503  0.00  0.00     0.222 HD
ENDBRANCH  22  24
BRANCH  22  26
ATOM     26  O   UNL d   1     -29.700  39.072  12.122  0.00  0.00    -0.307 OA
ATOM     27  H   UNL d   1     -30.302  39.543  11.516  0.00  0.00     0.222 HD
ENDBRANCH  22  26
ENDBRANCH  21  22
ENDBRANCH  20  21
ENDBRANCH   2  20
TORSDOF 13
ENDMDL
MODEL 4
REMARK VINA RESULT:      -4.6      4.624      7.309
REMARK  13 active torsions:
REMARK  status: ('A' for Active; 'I' for Inactive)
REMARK    1  A    between atoms: C_2  and  O_1 
REMARK    2  A    between atoms: C_3  and  C_5 
REMARK    3  A    between atoms: C_4  and  O_7 
REMARK    4  A    between atoms: C_5  and  O_9 
REMARK    5  A    between atoms: C_8  and  C_11 
REMARK    6  A    between atoms: C_8  and  O_10 
REMARK    7  A    between atoms: O_9  and  P_12 
REMARK    8  A    between atoms: C_11  and  O_13 
REMARK    9  A    between atoms: P_12  and  O_15 
REMARK   10  A    between atoms: P_12  and  O_16 
REMARK   11  A    between atoms: O_13  and  P_17 
REMARK   12  A    between atoms: P_17  and  O_19 
REMARK   13  A    between atoms: P_17  and  O_20 
ROOT
ATOM      1  C   UNL d   1     -29.646  36.147  15.111  0.00  0.00     0.183 C 
ATOM      2  C   UNL d   1     -30.852  35.381  15.651  0.00  0.00     0.181 C 
ATOM      3  C   UNL d   1     -30.077  36.604  13.719  0.00  0.00     0.213 C 
ATOM      4  O   UNL d   1     -31.524  34.826  14.505  0.00  0.00    -0.341 OA
ATOM      5  C   UNL d   1     -31.233  35.624  13.356  0.00  0.00     0.213 C 
ENDROOT
BRANCH   5   6
ATOM      6  C   UNL d   1     -32.542  36.269  12.904  0.00  0.00     0.251 C 
BRANCH   6   7
ATOM      7  O   UNL d   1     -33.656  35.445  13.205  0.00  0.00    -0.292 OA
BRANCH   7   8
ATOM      8  P   UNL d   1     -34.493  34.872  11.973  0.00  0.00     0.390 P 
ATOM      9  O   UNL d   1     -35.933  34.595  12.211  0.00  0.00    -0.632 OA
BRANCH   8  10
ATOM     10  O   UNL d   1     -34.250  35.946  10.814  0.00  0.00    -0.307 OA
ATOM     11  H   UNL d   1     -33.308  35.948  10.575  0.00  0.00     0.222 HD
ENDBRANCH   8  10
BRANCH   8  12
ATOM     12  O   UNL d   1     -33.642  33.622  11.493  0.00  0.00    -0.307 OA
ATOM     13  H   UNL d   1     -32.833  33.517  12.016  0.00  0.00     0.222 HD
ENDBRANCH   8  12
ENDBRANCH   7   8
ENDBRANCH   6   7
ENDBRANCH   5   6
BRANCH   5  14
ATOM     14  O   UNL d   1     -30.809  34.726  12.336  0.00  0.00    -0.362 OA
ATOM     15  H   UNL d   1     -31.542  34.103  12.211  0.00  0.00     0.213 HD
ENDBRANCH   5  14
BRANCH   3  16
ATOM     16  O   UNL d   1     -30.371  38.002  13.747  0.00  0.00    -0.387 OA
ATOM     17  H   UNL d   1     -31.314  38.171  13.890  0.00  0.00     0.210 HD
ENDBRANCH   3  16
BRANCH   1  18
ATOM     18  O   UNL d   1     -28.529  35.258  14.989  0.00  0.00    -0.390 OA
ATOM     19  H   UNL d   1     -27.738  35.742  15.289  0.00  0.00     0.210 HD
ENDBRANCH   1  18
BRANCH   2  20
ATOM     20  C   UNL d   1     -31.839  36.272  16.417  0.00  0.00     0.215 C 
BRANCH  20  21
ATOM     21  O   UNL d   1     -32.338  35.557  17.547  0.00  0.00    -0.294 OA
BRANCH  21  22
ATOM     22  P   UNL d   1     -34.029  35.795  17.828  0.00  0.00     0.390 P 
ATOM     23  O   UNL d   1     -35.541  36.008  18.078  0.00  0.00    -0.632 OA
BRANCH  22  24
ATOM     24  O   UNL d   1     -33.782  37.384  17.544  0.00  0.00    -0.307 OA
ATOM     25  H   UNL d   1     -34.650  37.818  17.674  0.00  0.00     0.222 HD
ENDBRANCH  22  24
BRANCH  22  26
ATOM     26  O   UNL d   1     -34.219  35.396  16.253  0.00  0.00    -0.307 OA
ATOM     27  H   UNL d   1     -33.770  34.542  16.112  0.00  0.00     0.222 HD
ENDBRANCH  22  26
ENDBRANCH  21  22
ENDBRANCH  20  21
ENDBRANCH   2  20
TORSDOF 13
ENDMDL
MODEL 5
REMARK VINA RESULT:      -4.6      2.570      5.011
REMARK  13 active torsions:
REMARK  status: ('A' for Active; 'I' for Inactive)
REMARK    1  A    between atoms: C_2  and  O_1 
REMARK    2  A    between atoms: C_3  and  C_5 
REMARK    3  A    between atoms: C_4  and  O_7 
REMARK    4  A    between atoms: C_5  and  O_9 
REMARK    5  A    between atoms: C_8  and  C_11 
REMARK    6  A    between atoms: C_8  and  O_10 
REMARK    7  A    between atoms: O_9  and  P_12 
REMARK    8  A    between atoms: C_11  and  O_13 
REMARK    9  A    between atoms: P_12  and  O_15 
REMARK   10  A    between atoms: P_12  and  O_16 
REMARK   11  A    between atoms: O_13  and  P_17 
REMARK   12  A    between atoms: P_17  and  O_19 
REMARK   13  A    between atoms: P_17  and  O_20 
ROOT
ATOM      1  C   UNL d   1     -32.329  35.542  13.630  0.00  0.00     0.183 C 
ATOM      2  C   UNL d   1     -32.191  36.291  12.306  0.00  0.00     0.181 C 
ATOM      3  C   UNL d   1     -31.493  34.278  13.441  0.00  0.00     0.213 C 
ATOM      4  O   UNL d   1     -31.985  35.287  11.294  0.00  0.00    -0.341 OA
ATOM      5  C   UNL d   1     -31.407  34.126  11.894  0.00  0.00     0.213 C 
ENDROOT
BRANCH   5   6
ATOM      6  C   UNL d   1     -30.003  33.964  11.312  0.00  0.00     0.251 C 
BRANCH   6   7
ATOM      7  O   UNL d   1     -29.912  34.524  10.013  0.00  0.00    -0.292 OA
BRANCH   7   8
ATOM      8  P   UNL d   1     -28.483  35.067   9.553  0.00  0.00     0.390 P 
ATOM      9  O   UNL d   1     -27.341  34.811  10.468  0.00  0.00    -0.632 OA
BRANCH   8  10
ATOM     10  O   UNL d   1     -28.277  34.420   8.106  0.00  0.00    -0.307 OA
ATOM     11  H   UNL d   1     -28.833  34.892   7.464  0.00  0.00     0.222 HD
ENDBRANCH   8  10
BRANCH   8  12
ATOM     12  O   UNL d   1     -28.752  36.598   9.231  0.00  0.00    -0.307 OA
ATOM     13  H   UNL d   1     -27.933  37.115   9.244  0.00  0.00     0.222 HD
ENDBRANCH   8  12
ENDBRANCH   7   8
ENDBRANCH   6   7
ENDBRANCH   5   6
BRANCH   5  14
ATOM     14  O   UNL d   1     -32.191  33.017  11.467  0.00  0.00    -0.362 OA
ATOM     15  H   UNL d   1     -33.031  33.086  11.948  0.00  0.00     0.213 HD
ENDBRANCH   5  14
BRANCH   3  16
ATOM     16  O   UNL d   1     -30.270  34.403  14.170  0.00  0.00    -0.387 OA
ATOM     17  H   UNL d   1     -30.405  34.301  15.124  0.00  0.00     0.210 HD
ENDBRANCH   3  16
BRANCH   1  18
ATOM     18  O   UNL d   1     -33.699  35.174  13.832  0.00  0.00    -0.390 OA
ATOM     19  H   UNL d   1     -34.044  34.859  12.976  0.00  0.00     0.210 HD
ENDBRANCH   1  18
BRANCH   2  20
ATOM     20  C   UNL d   1     -31.005  37.264  12.283  0.00  0.00     0.215 C 
BRANCH  20  21
ATOM     21  O   UNL d   1     -30.623  37.572  13.624  0.00  0.00    -0.294 OA
BRANCH  21  22
ATOM     22  P   UNL d   1     -28.927  37.854  13.816  0.00  0.00     0.390 P 
ATOM     23  O   UNL d   1     -27.410  38.106  13.988  0.00  0.00    -0.632 OA
BRANCH  22  24
ATOM     24  O   UNL d   1     -29.316  39.200  14.654  0.00  0.00    -0.307 OA
ATOM     25  H   UNL d   1     -30.261  39.369  14.469  0.00  0.00     0.222 HD
ENDBRANCH  22  24
BRANCH  22  26
ATOM     26  O   UNL d   1     -29.032  36.849  15.102  0.00  0.00    -0.307 OA
ATOM     27  H   UNL d   1     -29.456  36.026  14.795  0.00  0.00     0.222 HD
ENDBRANCH  22  26
ENDBRANCH  21  22
ENDBRANCH  20  21
ENDBRANCH   2  20
TORSDOF 13
ENDMDL
MODEL 6
REMARK VINA RESULT:      -4.5      2.953      4.207
REMARK  13 active torsions:
REMARK  status: ('A' for Active; 'I' for Inactive)
REMARK    1  A    between atoms: C_2  and  O_1 
REMARK    2  A    between atoms: C_3  and  C_5 
REMARK    3  A    between atoms: C_4  and  O_7 
REMARK    4  A    between atoms: C_5  and  O_9 
REMARK    5  A    between atoms: C_8  and  C_11 
REMARK    6  A    between atoms: C_8  and  O_10 
REMARK    7  A    between atoms: O_9  and  P_12 
REMARK    8  A    between atoms: C_11  and  O_13 
REMARK    9  A    between atoms: P_12  and  O_15 
REMARK   10  A    between atoms: P_12  and  O_16 
REMARK   11  A    between atoms: O_13  and  P_17 
REMARK   12  A    between atoms: P_17  and  O_19 
REMARK   13  A    between atoms: P_17  and  O_20 
ROOT
ATOM      1  C   UNL d   1     -30.941  35.263  14.047  0.00  0.00     0.183 C 
ATOM      2  C   UNL d   1     -31.126  33.877  13.433  0.00  0.00     0.181 C 
ATOM      3  C   UNL d   1     -29.817  35.895  13.229  0.00  0.00     0.213 C 
ATOM      4  O   UNL d   1     -29.842  33.493  12.907  0.00  0.00    -0.341 OA
ATOM      5  C   UNL d   1     -29.087  34.669  12.605  0.00  0.00     0.213 C 
ENDROOT
BRANCH   5   6
ATOM      6  C   UNL d   1     -28.886  34.705  11.091  0.00  0.00     0.251 C 
BRANCH   6   7
ATOM      7  O   UNL d   1     -27.615  35.229  10.749  0.00  0.00    -0.292 OA
BRANCH   7   8
ATOM      8  P   UNL d   1     -27.571  36.719  10.176  0.00  0.00     0.390 P 
ATOM      9  O   UNL d   1     -27.614  37.822  11.171  0.00  0.00    -0.632 OA
BRANCH   8  10
ATOM     10  O   UNL d   1     -26.248  36.744   9.279  0.00  0.00    -0.307 OA
ATOM     11  H   UNL d   1     -25.474  36.607   9.850  0.00  0.00     0.222 HD
ENDBRANCH   8  10
BRANCH   8  12
ATOM     12  O   UNL d   1     -28.739  36.741   9.102  0.00  0.00    -0.307 OA
ATOM     13  H   UNL d   1     -28.558  36.140   8.364  0.00  0.00     0.222 HD
ENDBRANCH   8  12
ENDBRANCH   7   8
ENDBRANCH   6   7
ENDBRANCH   5   6
BRANCH   5  14
ATOM     14  O   UNL d   1     -27.812  34.497  13.214  0.00  0.00    -0.362 OA
ATOM     15  H   UNL d   1     -27.343  35.338  13.089  0.00  0.00     0.213 HD
ENDBRANCH   5  14
BRANCH   3  16
ATOM     16  O   UNL d   1     -30.367  36.869  12.339  0.00  0.00    -0.387 OA
ATOM     17  H   UNL d   1     -30.217  36.636  11.411  0.00  0.00     0.210 HD
ENDBRANCH   3  16
BRANCH   1  18
ATOM     18  O   UNL d   1     -30.514  35.131  15.409  0.00  0.00    -0.390 OA
ATOM     19  H   UNL d   1     -31.174  34.578  15.867  0.00  0.00     0.210 HD
ENDBRANCH   1  18
BRANCH   2  20
ATOM     20  C   UNL d   1     -32.153  33.855  12.292  0.00  0.00     0.215 C 
BRANCH  20  21
ATOM     21  O   UNL d   1     -32.905  35.067  12.313  0.00  0.00    -0.294 OA
BRANCH  21  22
ATOM     22  P   UNL d   1     -34.603  34.835  12.074  0.00  0.00     0.390 P 
ATOM     23  O   UNL d   1     -36.122  34.628  11.859  0.00  0.00    -0.632 OA
BRANCH  22  24
ATOM     24  O   UNL d   1     -34.812  35.264  13.635  0.00  0.00    -0.307 OA
ATOM     25  H   UNL d   1     -34.129  34.779  14.141  0.00  0.00     0.222 HD
ENDBRANCH  22  24
BRANCH  22  26
ATOM     26  O   UNL d   1     -34.605  36.368  11.503  0.00  0.00    -0.307 OA
ATOM     27  H   UNL d   1     -34.021  36.390  10.723  0.00  0.00     0.222 HD
ENDBRANCH  22  26
ENDBRANCH  21  22
ENDBRANCH  20  21
ENDBRANCH   2  20
TORSDOF 13
ENDMDL
MODEL 7
REMARK VINA RESULT:      -4.2     17.537     19.489
REMARK  13 active torsions:
REMARK  status: ('A' for Active; 'I' for Inactive)
REMARK    1  A    between atoms: C_2  and  O_1 
REMARK    2  A    between atoms: C_3  and  C_5 
REMARK    3  A    between atoms: C_4  and  O_7 
REMARK    4  A    between atoms: C_5  and  O_9 
REMARK    5  A    between atoms: C_8  and  C_11 
REMARK    6  A    between atoms: C_8  and  O_10 
REMARK    7  A    between atoms: O_9  and  P_12 
REMARK    8  A    between atoms: C_11  and  O_13 
REMARK    9  A    between atoms: P_12  and  O_15 
REMARK   10  A    between atoms: P_12  and  O_16 
REMARK   11  A    between atoms: O_13  and  P_17 
REMARK   12  A    between atoms: P_17  and  O_19 
REMARK   13  A    between atoms: P_17  and  O_20 
ROOT
ATOM      1  C   UNL d   1     -39.425  24.500  -1.274  0.00  0.00     0.183 C 
ATOM      2  C   UNL d   1     -39.089  23.708  -2.536  0.00  0.00     0.181 C 
ATOM      3  C   UNL d   1     -38.066  24.870  -0.684  0.00  0.00     0.213 C 
ATOM      4  O   UNL d   1     -37.824  23.069  -2.287  0.00  0.00    -0.341 OA
ATOM      5  C   UNL d   1     -37.099  23.823  -1.313  0.00  0.00     0.213 C 
ENDROOT
BRANCH   5   6
ATOM      6  C   UNL d   1     -35.858  24.385  -2.003  0.00  0.00     0.251 C 
BRANCH   6   7
ATOM      7  O   UNL d   1     -35.159  25.286  -1.161  0.00  0.00    -0.292 OA
BRANCH   7   8
ATOM      8  P   UNL d   1     -33.682  24.872  -0.718  0.00  0.00     0.390 P 
ATOM      9  O   UNL d   1     -32.858  24.149  -1.721  0.00  0.00    -0.632 OA
BRANCH   8  10
ATOM     10  O   UNL d   1     -33.023  26.250  -0.250  0.00  0.00    -0.307 OA
ATOM     11  H   UNL d   1     -33.726  26.858   0.037  0.00  0.00     0.222 HD
ENDBRANCH   8  10
BRANCH   8  12
ATOM     12  O   UNL d   1     -33.906  24.095   0.648  0.00  0.00    -0.307 OA
ATOM     13  H   UNL d   1     -34.706  24.396   1.104  0.00  0.00     0.222 HD
ENDBRANCH   8  12
ENDBRANCH   7   8
ENDBRANCH   6   7
ENDBRANCH   5   6
BRANCH   5  14
ATOM     14  O   UNL d   1     -36.670  22.896  -0.321  0.00  0.00    -0.362 OA
ATOM     15  H   UNL d   1     -35.723  23.068  -0.190  0.00  0.00     0.213 HD
ENDBRANCH   5  14
BRANCH   3  16
ATOM     16  O   UNL d   1     -37.802  26.253  -0.927  0.00  0.00    -0.387 OA
ATOM     17  H   UNL d   1     -38.561  26.811  -0.702  0.00  0.00     0.210 HD
ENDBRANCH   3  16
BRANCH   1  18
ATOM     18  O   UNL d   1     -40.125  23.657  -0.351  0.00  0.00    -0.390 OA
ATOM     19  H   UNL d   1     -40.609  24.239   0.264  0.00  0.00     0.210 HD
ENDBRANCH   1  18
BRANCH   2  20
ATOM     20  C   UNL d   1     -38.959  24.589  -3.785  0.00  0.00     0.215 C 
BRANCH  20  21
ATOM     21  O   UNL d   1     -39.380  25.916  -3.471  0.00  0.00    -0.294 OA
BRANCH  21  22
ATOM     22  P   UNL d   1     -38.786  27.112  -4.572  0.00  0.00     0.390 P 
ATOM     23  O   UNL d   1     -38.254  28.182  -5.556  0.00  0.00    -0.632 OA
BRANCH  22  24
ATOM     24  O   UNL d   1     -39.406  28.243  -3.571  0.00  0.00    -0.307 OA
ATOM     25  H   UNL d   1     -39.569  29.033  -4.125  0.00  0.00     0.222 HD
ENDBRANCH  22  24
BRANCH  22  26
ATOM     26  O   UNL d   1     -37.370  26.970  -3.766  0.00  0.00    -0.307 OA
ATOM     27  H   UNL d   1     -37.160  26.020  -3.708  0.00  0.00     0.222 HD
ENDBRANCH  22  26
ENDBRANCH  21  22
ENDBRANCH  20  21
ENDBRANCH   2  20
TORSDOF 13
ENDMDL
MODEL 8
REMARK VINA RESULT:      -4.2      3.481      5.600
REMARK  13 active torsions:
REMARK  status: ('A' for Active; 'I' for Inactive)
REMARK    1  A    between atoms: C_2  and  O_1 
REMARK    2  A    between atoms: C_3  and  C_5 
REMARK    3  A    between atoms: C_4  and  O_7 
REMARK    4  A    between atoms: C_5  and  O_9 
REMARK    5  A    between atoms: C_8  and  C_11 
REMARK    6  A    between atoms: C_8  and  O_10 
REMARK    7  A    between atoms: O_9  and  P_12 
REMARK    8  A    between atoms: C_11  and  O_13 
REMARK    9  A    between atoms: P_12  and  O_15 
REMARK   10  A    between atoms: P_12  and  O_16 
REMARK   11  A    between atoms: O_13  and  P_17 
REMARK   12  A    between atoms: P_17  and  O_19 
REMARK   13  A    between atoms: P_17  and  O_20 
ROOT
ATOM      1  C   UNL d   1     -32.151  36.313  11.904  0.00  0.00     0.183 C 
ATOM      2  C   UNL d   1     -30.913  37.186  11.707  0.00  0.00     0.181 C 
ATOM      3  C   UNL d   1     -31.607  34.886  11.945  0.00  0.00     0.213 C 
ATOM      4  O   UNL d   1     -29.964  36.383  10.980  0.00  0.00    -0.341 OA
ATOM      5  C   UNL d   1     -30.228  35.001  11.230  0.00  0.00     0.213 C 
ENDROOT
BRANCH   5   6
ATOM      6  C   UNL d   1     -29.029  34.437  11.990  0.00  0.00     0.251 C 
BRANCH   6   7
ATOM      7  O   UNL d   1     -29.228  33.078  12.338  0.00  0.00    -0.292 OA
BRANCH   7   8
ATOM      8  P   UNL d   1     -28.879  32.651  13.836  0.00  0.00     0.390 P 
ATOM      9  O   UNL d   1     -27.601  31.924  14.046  0.00  0.00    -0.632 OA
BRANCH   8  10
ATOM     10  O   UNL d   1     -28.954  34.024  14.651  0.00  0.00    -0.307 OA
ATOM     11  H   UNL d   1     -29.274  33.842  15.551  0.00  0.00     0.222 HD
ENDBRANCH   8  10
BRANCH   8  12
ATOM     12  O   UNL d   1     -30.177  31.873  14.315  0.00  0.00    -0.307 OA
ATOM     13  H   UNL d   1     -29.990  31.299  15.072  0.00  0.00     0.222 HD
ENDBRANCH   8  12
ENDBRANCH   7   8
ENDBRANCH   6   7
ENDBRANCH   5   6
BRANCH   5  14
ATOM     14  O   UNL d   1     -30.283  34.364   9.958  0.00  0.00    -0.362 OA
ATOM     15  H   UNL d   1     -29.839  33.508  10.071  0.00  0.00     0.213 HD
ENDBRANCH   5  14
BRANCH   3  16
ATOM     16  O   UNL d   1     -31.623  34.410  13.293  0.00  0.00    -0.387 OA
ATOM     17  H   UNL d   1     -32.510  34.452  13.681  0.00  0.00     0.210 HD
ENDBRANCH   3  16
BRANCH   1  18
ATOM     18  O   UNL d   1     -33.021  36.452  10.774  0.00  0.00    -0.390 OA
ATOM     19  H   UNL d   1     -32.461  36.452   9.976  0.00  0.00     0.210 HD
ENDBRANCH   1  18
BRANCH   2  20
ATOM     20  C   UNL d   1     -30.273  37.633  13.028  0.00  0.00     0.215 C 
BRANCH  20  21
ATOM     21  O   UNL d   1     -31.198  37.422  14.094  0.00  0.00    -0.294 OA
BRANCH  21  22
ATOM     22  P   UNL d   1     -30.470  37.466  15.663  0.00  0.00     0.390 P 
ATOM     23  O   UNL d   1     -29.819  37.504  17.067  0.00  0.00    -0.632 OA
BRANCH  22  24
ATOM     24  O   UNL d   1     -31.856  38.130  16.212  0.00  0.00    -0.307 OA
ATOM     25  H   UNL d   1     -32.349  38.420  15.418  0.00  0.00     0.222 HD
ENDBRANCH  22  24
BRANCH  22  26
ATOM     26  O   UNL d   1     -30.985  35.920  15.807  0.00  0.00    -0.307 OA
ATOM     27  H   UNL d   1     -30.663  35.431  15.028  0.00  0.00     0.222 HD
ENDBRANCH  22  26
ENDBRANCH  21  22
ENDBRANCH  20  21
ENDBRANCH   2  20
TORSDOF 13
ENDMDL
MODEL 9
REMARK VINA RESULT:      -4.0     18.046     19.685
REMARK  13 active torsions:
REMARK  status: ('A' for Active; 'I' for Inactive)
REMARK    1  A    between atoms: C_2  and  O_1 
REMARK    2  A    between atoms: C_3  and  C_5 
REMARK    3  A    between atoms: C_4  and  O_7 
REMARK    4  A    between atoms: C_5  and  O_9 
REMARK    5  A    between atoms: C_8  and  C_11 
REMARK    6  A    between atoms: C_8  and  O_10 
REMARK    7  A    between atoms: O_9  and  P_12 
REMARK    8  A    between atoms: C_11  and  O_13 
REMARK    9  A    between atoms: P_12  and  O_15 
REMARK   10  A    between atoms: P_12  and  O_16 
REMARK   11  A    between atoms: O_13  and  P_17 
REMARK   12  A    between atoms: P_17  and  O_19 
REMARK   13  A    between atoms: P_17  and  O_20 
ROOT
ATOM      1  C   UNL d   1     -37.431  25.805  -0.976  0.00  0.00     0.183 C 
ATOM      2  C   UNL d   1     -38.317  24.995  -1.922  0.00  0.00     0.181 C 
ATOM      3  C   UNL d   1     -36.111  25.038  -0.943  0.00  0.00     0.213 C 
ATOM      4  O   UNL d   1     -37.877  23.628  -1.815  0.00  0.00    -0.341 OA
ATOM      5  C   UNL d   1     -36.509  23.604  -1.401  0.00  0.00     0.213 C 
ENDROOT
BRANCH   5   6
ATOM      6  C   UNL d   1     -35.695  23.016  -2.552  0.00  0.00     0.251 C 
BRANCH   6   7
ATOM      7  O   UNL d   1     -34.343  22.810  -2.178  0.00  0.00    -0.292 OA
BRANCH   7   8
ATOM      8  P   UNL d   1     -33.220  23.320  -3.191  0.00  0.00     0.390 P 
ATOM      9  O   UNL d   1     -32.410  22.280  -3.875  0.00  0.00    -0.632 OA
BRANCH   8  10
ATOM     10  O   UNL d   1     -34.023  24.253  -4.212  0.00  0.00    -0.307 OA
ATOM     11  H   UNL d   1     -33.415  24.564  -4.903  0.00  0.00     0.222 HD
ENDBRANCH   8  10
BRANCH   8  12
ATOM     12  O   UNL d   1     -32.385  24.359  -2.331  0.00  0.00    -0.307 OA
ATOM     13  H   UNL d   1     -32.360  24.111  -1.395  0.00  0.00     0.222 HD
ENDBRANCH   8  12
ENDBRANCH   7   8
ENDBRANCH   6   7
ENDBRANCH   5   6
BRANCH   5  14
ATOM     14  O   UNL d   1     -36.435  22.702  -0.303  0.00  0.00    -0.362 OA
ATOM     15  H   UNL d   1     -35.994  23.189   0.411  0.00  0.00     0.213 HD
ENDBRANCH   5  14
BRANCH   3  16
ATOM     16  O   UNL d   1     -35.134  25.739  -1.716  0.00  0.00    -0.387 OA
ATOM     17  H   UNL d   1     -35.504  26.531  -2.134  0.00  0.00     0.210 HD
ENDBRANCH   3  16
BRANCH   1  18
ATOM     18  O   UNL d   1     -38.007  25.807   0.335  0.00  0.00    -0.390 OA
ATOM     19  H   UNL d   1     -37.903  26.706   0.696  0.00  0.00     0.210 HD
ENDBRANCH   1  18
BRANCH   2  20
ATOM     20  C   UNL d   1     -38.199  25.438  -3.387  0.00  0.00     0.215 C 
BRANCH  20  21
ATOM     21  O   UNL d   1     -39.458  25.949  -3.825  0.00  0.00    -0.294 OA
BRANCH  21  22
ATOM     22  P   UNL d   1     -39.330  27.406  -4.750  0.00  0.00     0.390 P 
ATOM     23  O   UNL d   1     -39.215  28.710  -5.577  0.00  0.00    -0.632 OA
BRANCH  22  24
ATOM     24  O   UNL d   1     -39.535  28.229  -3.355  0.00  0.00    -0.307 OA
ATOM     25  H   UNL d   1     -39.793  27.563  -2.685  0.00  0.00     0.222 HD
ENDBRANCH  22  24
BRANCH  22  26
ATOM     26  O   UNL d   1     -37.714  27.228  -4.575  0.00  0.00    -0.307 OA
ATOM     27  H   UNL d   1     -37.319  28.119  -4.590  0.00  0.00     0.222 HD
ENDBRANCH  22  26
ENDBRANCH  21  22
ENDBRANCH  20  21
ENDBRANCH   2  20
TORSDOF 13
ENDMDL
