MODEL 1
REMARK VINA RESULT:      -9.5      0.000      0.000
REMARK WARNING: 32 MAX_TORS EXCEEDED!!!
REMARK  41 active torsions:
REMARK  status: ('A' for Active; 'I' for Inactive)
REMARK    1  A    between atoms: CB_3  and  CG1_2 
REMARK    2  A    between atoms: CA_4  and  CB_3 
REMARK    3  A    between atoms: CA_4  and  C_6 
REMARK    4  A    between atoms: CA_4  and  N_7 
REMARK       I    between atoms: C_6  and  N_8 
REMARK       I    between atoms: N_7  and  C_10 
REMARK    5  A    between atoms: N_8  and  CA_11 
REMARK    6  A    between atoms: CA_12  and  C_10 
REMARK    7  A    between atoms: CA_11  and  CB_15 
REMARK    8  A    between atoms: CA_11  and  C_14 
REMARK    9  A    between atoms: CA_12  and  N_17 
REMARK   10  A    between atoms: CA_12  and  CB_16 
REMARK       I    between atoms: C_14  and  N_18 
REMARK   11  A    between atoms: CB_15  and  CG_20 
REMARK   12  A    between atoms: CB_16  and  CG_21 
REMARK       I    between atoms: N_17  and  C_22 
REMARK   13  A    between atoms: C_22  and  CA_29 
REMARK   14  A    between atoms: CA_24  and  C_33 
REMARK   15  A    between atoms: CA_29  and  N_39 
REMARK   16  A    between atoms: CA_29  and  CB_38 
REMARK       I    between atoms: C_33  and  N_40 
REMARK       I    between atoms: N_39  and  C_45 
REMARK   17  A    between atoms: N_40  and  CA_46 
REMARK   18  A    between atoms: CZ_42  and  OH_47 
REMARK   19  A    between atoms: CA_48  and  C_45 
REMARK   20  A    between atoms: CA_46  and  CB_51 
REMARK   21  A    between atoms: CA_46  and  C_50 
REMARK   22  A    between atoms: CA_48  and  N_52 
REMARK   23  A    between atoms: CA_48  and  CB_53 
REMARK       I    between atoms: C_50  and  N_54 
REMARK   24  A    between atoms: CB_51  and  CG_56 
REMARK       I    between atoms: N_52  and  C_57 
REMARK   25  A    between atoms: CB_53  and  CG_58 
REMARK   26  A    between atoms: N_54  and  CA_59 
REMARK   27  A    between atoms: C_57  and  CA_62 
REMARK   28  A    between atoms: CG_58  and  CD_64 
REMARK   29  A    between atoms: CA_59  and  CB_66 
REMARK   30  A    between atoms: CA_59  and  C_65 
REMARK   31  A    between atoms: CA_62  and  N_70 
REMARK   32  A    between atoms: CA_62  and  CB_69 
REMARK   33  A    between atoms: CD_64  and  NE_71 
REMARK       I    between atoms: C_65  and  N_72 
REMARK   34  A    between atoms: CB_66  and  CG_74 
REMARK   35  A    between atoms: CB_69  and  CG_76 
REMARK   36  A    between atoms: N_72  and  CA_78 
REMARK   37  A    between atoms: CG_76  and  OD1_82 
REMARK       I    between atoms: CZ_77  and  NH1_83 
REMARK       I    between atoms: CZ_77  and  NH2_84 
REMARK   38  A    between atoms: CA_78  and  CB_86 
REMARK   39  A    between atoms: CA_78  and  C_85 
REMARK   40  A    between atoms: C_85  and  O_90 
REMARK   41  A    between atoms: CB_86  and  CG_91 
ROOT
ATOM      1  CA  ILE d   5     -22.593  -8.526 -14.313  0.00  0.00     0.180 C 
ENDROOT
BRANCH   1   2
ATOM      2  C   ILE d   5     -22.064 -10.001 -14.332  0.00  0.00     0.241 C 
ATOM      3  O   ILE d   5     -20.953 -10.274 -14.782  0.00  0.00    -0.271 OA
ATOM      4  N   HIS d   6     -22.956 -10.969 -13.939  0.00  0.00    -0.346 N 
ATOM      5  H   HIS d   6     -23.815 -10.678 -13.508  0.00  0.00     0.163 HD
BRANCH   4   6
ATOM      6  CA  HIS d   6     -22.616 -12.338 -13.523  0.00  0.00     0.182 C 
BRANCH   6   7
ATOM      7  CB  HIS d   6     -23.439 -12.496 -12.182  0.00  0.00     0.087 C 
BRANCH   7   8
ATOM      8  CG  HIS d   6     -24.541 -11.578 -11.786  0.00  0.00     0.010 C 
ATOM      9  CD2 HIS d   6     -25.891 -11.535 -12.092  0.00  0.00     0.136 C 
ATOM     10  NE2 HIS d   6     -26.512 -10.580 -11.327  0.00  0.00    -0.260 NA
ATOM     11  CE1 HIS d   6     -25.558 -10.076 -10.585  0.00  0.00     0.180 C 
ATOM     12  ND1 HIS d   6     -24.353 -10.336 -11.191  0.00  0.00    -0.256 NA
ATOM     13  HD1 HIS d   6     -23.986  -9.592 -11.763  0.00  0.00     0.134 HD
ENDBRANCH   7   8
ENDBRANCH   6   7
BRANCH   6  14
ATOM     14  C   HIS d   6     -23.125 -13.254 -14.739  0.00  0.00     0.243 C 
ATOM     15  O   HIS d   6     -23.024 -12.817 -15.894  0.00  0.00    -0.271 OA
ATOM     16  N   PRO d   7     -23.664 -14.554 -14.545  0.00  0.00    -0.337 N 
ATOM     17  CD  PRO d   7     -23.205 -15.471 -13.500  0.00  0.00     0.127 C 
ATOM     18  CA  PRO d   7     -24.004 -15.384 -15.762  0.00  0.00     0.179 C 
ATOM     19  CG  PRO d   7     -22.544 -16.622 -14.264  0.00  0.00     0.022 C 
ATOM     20  CB  PRO d   7     -22.815 -16.357 -15.747  0.00  0.00     0.037 C 
BRANCH  18  21
ATOM     21  C   PRO d   7     -25.337 -16.253 -15.687  0.00  0.00     0.241 C 
ATOM     22  O   PRO d   7     -26.090 -16.154 -14.711  0.00  0.00    -0.271 OA
ATOM     23  N   PHE d   8     -25.795 -17.125 -16.661  0.00  0.00    -0.346 N 
ATOM     24  H   PHE d   8     -26.628 -17.545 -16.266  0.00  0.00     0.163 HD
BRANCH  23  25
ATOM     25  CA  PHE d   8     -25.139 -17.974 -17.711  0.00  0.00     0.180 C 
BRANCH  25  26
ATOM     26  CB  PHE d   8     -25.900 -19.358 -17.925  0.00  0.00     0.073 C 
BRANCH  26  27
ATOM     27  CG  PHE d   8     -25.509 -20.385 -19.007  0.00  0.00    -0.056 C 
ATOM     28  CD1 PHE d   8     -24.211 -20.892 -19.079  0.00  0.00     0.007 C 
ATOM     29  CE1 PHE d   8     -23.862 -21.891 -20.014  0.00  0.00     0.001 C 
ATOM     30  CZ  PHE d   8     -24.783 -22.357 -20.956  0.00  0.00     0.000 C 
ATOM     31  CE2 PHE d   8     -26.080 -21.901 -20.890  0.00  0.00     0.001 C 
ATOM     32  CD2 PHE d   8     -26.431 -21.008 -19.878  0.00  0.00     0.007 C 
ENDBRANCH  26  27
ENDBRANCH  25  26
BRANCH  25  33
ATOM     33  C   PHE d   8     -24.915 -17.184 -19.001  0.00  0.00     0.241 C 
ATOM     34  O   PHE d   8     -23.783 -17.048 -19.438  0.00  0.00    -0.271 OA
ATOM     35  N   HIS d   9     -25.909 -16.552 -19.676  0.00  0.00    -0.346 N 
ATOM     36  H   HIS d   9     -25.480 -16.180 -20.509  0.00  0.00     0.163 HD
BRANCH  35  37
ATOM     37  CA  HIS d   9     -27.382 -16.632 -19.663  0.00  0.00     0.182 C 
BRANCH  37  38
ATOM     38  CB  HIS d   9     -28.180 -17.872 -20.147  0.00  0.00     0.093 C 
BRANCH  38  39
ATOM     39  CG  HIS d   9     -28.001 -18.237 -21.557  0.00  0.00     0.030 C 
ATOM     40  CD2 HIS d   9     -27.054 -17.843 -22.455  0.00  0.00     0.143 C 
ATOM     41  NE2 HIS d   9     -27.137 -18.566 -23.609  0.00  0.00    -0.254 NA
ATOM     42  CE1 HIS d   9     -28.191 -19.330 -23.454  0.00  0.00     0.207 C 
ATOM     43  ND1 HIS d   9     -28.841 -19.038 -22.289  0.00  0.00    -0.353 N 
ATOM     44  HD1 HIS d   9     -29.757 -19.374 -22.025  0.00  0.00     0.166 HD
ENDBRANCH  38  39
ENDBRANCH  37  38
BRANCH  37  45
ATOM     45  C   HIS d   9     -28.171 -15.810 -18.582  0.00  0.00     0.241 C 
ATOM     46  O   HIS d   9     -28.724 -16.392 -17.642  0.00  0.00    -0.271 OA
ATOM     47  N   LEU d  10     -28.388 -14.459 -18.632  0.00  0.00    -0.345 N 
ATOM     48  H   LEU d  10     -28.992 -14.235 -17.844  0.00  0.00     0.163 HD
BRANCH  47  49
ATOM     49  CA  LEU d  10     -27.426 -13.354 -18.841  0.00  0.00     0.182 C 
BRANCH  49  50
ATOM     50  CB  LEU d  10     -28.108 -12.007 -19.030  0.00  0.00     0.040 C 
BRANCH  50  51
ATOM     51  CG  LEU d  10     -27.228 -10.814 -18.754  0.00  0.00    -0.020 C 
ATOM     52  CD1 LEU d  10     -27.232  -9.939 -19.992  0.00  0.00     0.009 C 
ATOM     53  CD2 LEU d  10     -27.655 -10.160 -17.452  0.00  0.00     0.009 C 
ENDBRANCH  50  51
ENDBRANCH  49  50
BRANCH  49  54
ATOM     54  C   LEU d  10     -26.309 -13.424 -17.770  0.00  0.00     0.163 C 
ATOM     55  OXT LEU d  10     -26.479 -13.294 -16.558  0.00  0.00    -0.648 OA
BRANCH  54  56
ATOM     56  O   LEU d  10     -25.092 -13.651 -18.303  0.00  0.00    -0.775 OA
ATOM     57  H   LEU d  10     -24.635 -14.366 -17.819  0.00  0.00     0.167 HD
ENDBRANCH  54  56
ENDBRANCH  49  54
ENDBRANCH  47  49
ENDBRANCH  37  45
ENDBRANCH  35  37
ENDBRANCH  25  33
ENDBRANCH  23  25
ENDBRANCH  18  21
ENDBRANCH   6  14
ENDBRANCH   4   6
ENDBRANCH   1   2
BRANCH   1  58
ATOM     58  N   ILE d   5     -21.781  -7.819 -13.300  0.00  0.00    -0.346 N 
ATOM     59  C   TYR d   4     -22.263  -7.401 -12.073  0.00  0.00     0.241 C 
ATOM     60  O   TYR d   4     -23.458  -7.484 -11.797  0.00  0.00    -0.271 OA
ATOM     61  H   ILE d   5     -20.795  -8.062 -13.315  0.00  0.00     0.163 HD
BRANCH  59  62
ATOM     62  CA  TYR d   4     -21.216  -6.807 -11.059  0.00  0.00     0.180 C 
BRANCH  62  63
ATOM     63  N   TYR d   4     -20.794  -5.421 -11.467  0.00  0.00    -0.346 N 
ATOM     64  C   VAL d   3     -21.656  -4.342 -11.279  0.00  0.00     0.241 C 
ATOM     65  O   VAL d   3     -22.736  -4.555 -10.736  0.00  0.00    -0.271 OA
ATOM     66  H   TYR d   4     -20.231  -5.365 -12.306  0.00  0.00     0.163 HD
BRANCH  64  67
ATOM     67  CA  VAL d   3     -21.227  -2.901 -11.820  0.00  0.00     0.180 C 
BRANCH  67  68
ATOM     68  N   VAL d   3     -21.086  -1.694 -10.911  0.00  0.00    -0.346 N 
ATOM     69  C   ARG d   2     -21.722  -0.534 -10.588  0.00  0.00     0.241 C 
ATOM     70  O   ARG d   2     -21.015   0.275  -9.967  0.00  0.00    -0.271 OA
ATOM     71  H   VAL d   3     -20.113  -1.508 -10.665  0.00  0.00     0.163 HD
BRANCH  69  72
ATOM     72  CA  ARG d   2     -23.232  -0.333 -10.751  0.00  0.00     0.176 C 
BRANCH  72  73
ATOM     73  N   ARG d   2     -23.668   0.821  -9.955  0.00  0.00    -0.346 N 
ATOM     74  C   ASP d   1     -23.678   0.828  -8.582  0.00  0.00     0.252 C 
ATOM     75  O   ASP d   1     -23.561  -0.184  -7.887  0.00  0.00    -0.271 OA
ATOM     76  H   ARG d   2     -23.471   1.717 -10.393  0.00  0.00     0.163 HD
BRANCH  74  77
ATOM     77  CA  ASP d   1     -23.915   2.217  -7.929  0.00  0.00     0.318 C 
BRANCH  77  78
ATOM     78  N   ASP d   1     -24.763   3.014  -8.860  0.00  0.00     0.092 N 
ATOM     79  H1  ASP d   1     -24.762   3.994  -8.580  0.00  0.00     0.313 HD
ATOM     80  H2  ASP d   1     -25.737   2.712  -8.712  0.00  0.00     0.313 HD
ENDBRANCH  77  78
BRANCH  77  81
ATOM     81  CB  ASP d   1     -24.616   2.055  -6.576  0.00  0.00     0.155 C 
BRANCH  81  82
ATOM     82  CG  ASP d   1     -26.107   1.967  -6.731  0.00  0.00     0.141 C 
ATOM     83  OD2 ASP d   1     -26.753   0.979  -7.035  0.00  0.00    -0.650 OA
BRANCH  82  84
ATOM     84  OD1 ASP d   1     -26.722   3.122  -6.410  0.00  0.00    -0.776 OA
ATOM     85  HD1 ASP d   1     -27.679   2.928  -6.480  0.00  0.00     0.167 HD
ENDBRANCH  82  84
ENDBRANCH  81  82
ENDBRANCH  77  81
ENDBRANCH  74  77
ENDBRANCH  72  73
BRANCH  72  86
ATOM     86  CB  ARG d   2     -23.730  -0.545 -12.195  0.00  0.00     0.037 C 
BRANCH  86  87
ATOM     87  CG  ARG d   2     -24.350   0.594 -13.020  0.00  0.00     0.024 C 
BRANCH  87  88
ATOM     88  CD  ARG d   2     -24.879   0.219 -14.399  0.00  0.00     0.152 C 
BRANCH  88  89
ATOM     89  NE  ARG d   2     -25.942   1.131 -14.787  0.00  0.00    -0.268 NA
ATOM     90  CZ  ARG d   2     -27.162   0.925 -14.539  0.00  0.00     0.143 C 
ATOM     91  NH1 ARG d   2     -28.061   1.823 -14.974  0.00  0.00    -0.278 NA
ATOM     92  NH2 ARG d   2     -27.763  -0.115 -13.909  0.00  0.00    -0.278 NA
ATOM     93 1HH1 ARG d   2     -27.579   2.690 -15.255  0.00  0.00     0.126 HD
ATOM     94 2HH1 ARG d   2     -28.884   1.974 -14.421  0.00  0.00     0.126 HD
ATOM     95 1HH2 ARG d   2     -27.145  -0.708 -13.364  0.00  0.00     0.126 HD
ATOM     96 2HH2 ARG d   2     -28.617   0.112 -13.398  0.00  0.00     0.126 HD
ENDBRANCH  88  89
ENDBRANCH  87  88
ENDBRANCH  86  87
ENDBRANCH  72  86
ENDBRANCH  69  72
ENDBRANCH  67  68
BRANCH  67  97
ATOM     97  CB  VAL d   3     -19.817  -2.965 -12.511  0.00  0.00     0.009 C 
ATOM     98  CG1 VAL d   3     -19.957  -3.127 -14.032  0.00  0.00     0.012 C 
ATOM     99  CG2 VAL d   3     -18.834  -1.851 -12.161  0.00  0.00     0.012 C 
ENDBRANCH  67  97
ENDBRANCH  64  67
ENDBRANCH  62  63
BRANCH  62 100
ATOM    100  CB  TYR d   4     -21.724  -6.832  -9.579  0.00  0.00     0.073 C 
BRANCH 100 101
ATOM    101  CG  TYR d   4     -20.908  -7.594  -8.540  0.00  0.00    -0.056 A 
ATOM    102  CD1 TYR d   4     -21.528  -8.356  -7.534  0.00  0.00     0.010 A 
ATOM    103  CE1 TYR d   4     -20.772  -9.103  -6.618  0.00  0.00     0.037 A 
ATOM    104  CZ  TYR d   4     -19.390  -9.087  -6.680  0.00  0.00     0.065 A 
ATOM    105  CE2 TYR d   4     -18.747  -8.366  -7.671  0.00  0.00     0.037 A 
ATOM    106  CD2 TYR d   4     -19.514  -7.653  -8.601  0.00  0.00     0.010 A 
BRANCH 104 107
ATOM    107  OH  TYR d   4     -18.673  -9.806  -5.777  0.00  0.00    -0.361 OA
ATOM    108  HH  TYR d   4     -19.140  -9.718  -4.927  0.00  0.00     0.217 HD
ENDBRANCH 104 107
ENDBRANCH 100 101
ENDBRANCH  62 100
ENDBRANCH  59  62
ENDBRANCH   1  58
BRANCH   1 109
ATOM    109  CB  ILE d   5     -22.780  -7.864 -15.734  0.00  0.00     0.013 C 
ATOM    110  CG2 ILE d   5     -21.504  -7.804 -16.586  0.00  0.00     0.012 C 
BRANCH 109 111
ATOM    111  CG1 ILE d   5     -23.979  -8.508 -16.486  0.00  0.00     0.002 C 
ATOM    112  CD1 ILE d   5     -23.804  -8.713 -17.985  0.00  0.00     0.005 C 
ENDBRANCH 109 111
ENDBRANCH   1 109
TORSDOF 41
ENDMDL
MODEL 2
REMARK VINA RESULT:      -9.2      2.533      6.252
REMARK WARNING: 32 MAX_TORS EXCEEDED!!!
REMARK  41 active torsions:
REMARK  status: ('A' for Active; 'I' for Inactive)
REMARK    1  A    between atoms: CB_3  and  CG1_2 
REMARK    2  A    between atoms: CA_4  and  CB_3 
REMARK    3  A    between atoms: CA_4  and  C_6 
REMARK    4  A    between atoms: CA_4  and  N_7 
REMARK       I    between atoms: C_6  and  N_8 
REMARK       I    between atoms: N_7  and  C_10 
REMARK    5  A    between atoms: N_8  and  CA_11 
REMARK    6  A    between atoms: CA_12  and  C_10 
REMARK    7  A    between atoms: CA_11  and  CB_15 
REMARK    8  A    between atoms: CA_11  and  C_14 
REMARK    9  A    between atoms: CA_12  and  N_17 
REMARK   10  A    between atoms: CA_12  and  CB_16 
REMARK       I    between atoms: C_14  and  N_18 
REMARK   11  A    between atoms: CB_15  and  CG_20 
REMARK   12  A    between atoms: CB_16  and  CG_21 
REMARK       I    between atoms: N_17  and  C_22 
REMARK   13  A    between atoms: C_22  and  CA_29 
REMARK   14  A    between atoms: CA_24  and  C_33 
REMARK   15  A    between atoms: CA_29  and  N_39 
REMARK   16  A    between atoms: CA_29  and  CB_38 
REMARK       I    between atoms: C_33  and  N_40 
REMARK       I    between atoms: N_39  and  C_45 
REMARK   17  A    between atoms: N_40  and  CA_46 
REMARK   18  A    between atoms: CZ_42  and  OH_47 
REMARK   19  A    between atoms: CA_48  and  C_45 
REMARK   20  A    between atoms: CA_46  and  CB_51 
REMARK   21  A    between atoms: CA_46  and  C_50 
REMARK   22  A    between atoms: CA_48  and  N_52 
REMARK   23  A    between atoms: CA_48  and  CB_53 
REMARK       I    between atoms: C_50  and  N_54 
REMARK   24  A    between atoms: CB_51  and  CG_56 
REMARK       I    between atoms: N_52  and  C_57 
REMARK   25  A    between atoms: CB_53  and  CG_58 
REMARK   26  A    between atoms: N_54  and  CA_59 
REMARK   27  A    between atoms: C_57  and  CA_62 
REMARK   28  A    between atoms: CG_58  and  CD_64 
REMARK   29  A    between atoms: CA_59  and  CB_66 
REMARK   30  A    between atoms: CA_59  and  C_65 
REMARK   31  A    between atoms: CA_62  and  N_70 
REMARK   32  A    between atoms: CA_62  and  CB_69 
REMARK   33  A    between atoms: CD_64  and  NE_71 
REMARK       I    between atoms: C_65  and  N_72 
REMARK   34  A    between atoms: CB_66  and  CG_74 
REMARK   35  A    between atoms: CB_69  and  CG_76 
REMARK   36  A    between atoms: N_72  and  CA_78 
REMARK   37  A    between atoms: CG_76  and  OD1_82 
REMARK       I    between atoms: CZ_77  and  NH1_83 
REMARK       I    between atoms: CZ_77  and  NH2_84 
REMARK   38  A    between atoms: CA_78  and  CB_86 
REMARK   39  A    between atoms: CA_78  and  C_85 
REMARK   40  A    between atoms: C_85  and  O_90 
REMARK   41  A    between atoms: CB_86  and  CG_91 
ROOT
ATOM      1  CA  ILE d   5     -21.443 -10.374 -12.758  0.00  0.00     0.180 C 
ENDROOT
BRANCH   1   2
ATOM      2  C   ILE d   5     -22.184 -11.623 -13.346  0.00  0.00     0.241 C 
ATOM      3  O   ILE d   5     -21.718 -12.754 -13.229  0.00  0.00    -0.271 OA
ATOM      4  N   HIS d   6     -23.303 -11.364 -14.099  0.00  0.00    -0.346 N 
ATOM      5  H   HIS d   6     -23.678 -10.432 -14.090  0.00  0.00     0.163 HD
BRANCH   4   6
ATOM      6  CA  HIS d   6     -24.356 -12.332 -14.441  0.00  0.00     0.182 C 
BRANCH   6   7
ATOM      7  CB  HIS d   6     -25.666 -11.591 -13.955  0.00  0.00     0.087 C 
BRANCH   7   8
ATOM      8  CG  HIS d   6     -25.783 -10.920 -12.632  0.00  0.00     0.010 C 
ATOM      9  CD2 HIS d   6     -26.639 -11.093 -11.557  0.00  0.00     0.136 C 
ATOM     10  NE2 HIS d   6     -26.216 -10.330 -10.498  0.00  0.00    -0.260 NA
ATOM     11  CE1 HIS d   6     -25.138  -9.727 -10.931  0.00  0.00     0.180 C 
ATOM     12  ND1 HIS d   6     -25.168  -9.717 -12.304  0.00  0.00    -0.256 NA
ATOM     13  HD1 HIS d   6     -25.528  -8.876 -12.724  0.00  0.00     0.134 HD
ENDBRANCH   7   8
ENDBRANCH   6   7
BRANCH   6  14
ATOM     14  C   HIS d   6     -24.228 -12.502 -16.032  0.00  0.00     0.243 C 
ATOM     15  O   HIS d   6     -24.404 -11.508 -16.751  0.00  0.00    -0.271 OA
ATOM     16  N   PRO d   7     -23.898 -13.740 -16.647  0.00  0.00    -0.337 N 
ATOM     17  CD  PRO d   7     -22.988 -14.720 -16.051  0.00  0.00     0.127 C 
ATOM     18  CA  PRO d   7     -23.685 -13.771 -18.143  0.00  0.00     0.179 C 
ATOM     19  CG  PRO d   7     -21.776 -14.734 -16.987  0.00  0.00     0.022 C 
ATOM     20  CB  PRO d   7     -22.151 -13.851 -18.179  0.00  0.00     0.037 C 
BRANCH  18  21
ATOM     21  C   PRO d   7     -24.250 -15.039 -18.922  0.00  0.00     0.241 C 
ATOM     22  O   PRO d   7     -23.591 -15.553 -19.834  0.00  0.00    -0.271 OA
ATOM     23  N   PHE d   8     -25.442 -15.693 -18.655  0.00  0.00    -0.346 N 
ATOM     24  H   PHE d   8     -25.514 -16.410 -19.368  0.00  0.00     0.163 HD
BRANCH  23  25
ATOM     25  CA  PHE d   8     -26.769 -15.280 -18.090  0.00  0.00     0.180 C 
BRANCH  25  26
ATOM     26  CB  PHE d   8     -27.396 -14.042 -18.872  0.00  0.00     0.073 C 
BRANCH  26  27
ATOM     27  CG  PHE d   8     -27.424 -12.606 -18.311  0.00  0.00    -0.056 C 
ATOM     28  CD1 PHE d   8     -27.112 -11.513 -19.121  0.00  0.00     0.007 C 
ATOM     29  CE1 PHE d   8     -27.210 -10.188 -18.641  0.00  0.00     0.001 C 
ATOM     30  CZ  PHE d   8     -27.552  -9.922 -17.313  0.00  0.00     0.000 C 
ATOM     31  CE2 PHE d   8     -27.898 -10.976 -16.497  0.00  0.00     0.001 C 
ATOM     32  CD2 PHE d   8     -27.913 -12.264 -17.030  0.00  0.00     0.007 C 
ENDBRANCH  26  27
ENDBRANCH  25  26
BRANCH  25  33
ATOM     33  C   PHE d   8     -27.714 -16.477 -17.964  0.00  0.00     0.241 C 
ATOM     34  O   PHE d   8     -28.915 -16.290 -17.852  0.00  0.00    -0.271 OA
ATOM     35  N   HIS d   9     -27.289 -17.764 -17.901  0.00  0.00    -0.346 N 
ATOM     36  H   HIS d   9     -28.124 -18.328 -17.891  0.00  0.00     0.163 HD
BRANCH  35  37
ATOM     37  CA  HIS d   9     -26.023 -18.453 -18.220  0.00  0.00     0.182 C 
BRANCH  37  38
ATOM     38  CB  HIS d   9     -24.990 -18.891 -17.149  0.00  0.00     0.093 C 
BRANCH  38  39
ATOM     39  CG  HIS d   9     -23.586 -18.591 -17.454  0.00  0.00     0.030 C 
ATOM     40  CD2 HIS d   9     -22.531 -18.373 -16.619  0.00  0.00     0.143 C 
ATOM     41  NE2 HIS d   9     -21.357 -18.316 -17.312  0.00  0.00    -0.254 NA
ATOM     42  CE1 HIS d   9     -21.704 -18.401 -18.572  0.00  0.00     0.207 C 
ATOM     43  ND1 HIS d   9     -23.063 -18.399 -18.708  0.00  0.00    -0.353 N 
ATOM     44  HD1 HIS d   9     -23.568 -18.297 -19.578  0.00  0.00     0.166 HD
ENDBRANCH  38  39
ENDBRANCH  37  38
BRANCH  37  45
ATOM     45  C   HIS d   9     -25.960 -19.355 -19.504  0.00  0.00     0.241 C 
ATOM     46  O   HIS d   9     -25.646 -20.547 -19.409  0.00  0.00    -0.271 OA
ATOM     47  N   LEU d  10     -26.140 -18.906 -20.785  0.00  0.00    -0.345 N 
ATOM     48  H   LEU d  10     -25.960 -19.699 -21.397  0.00  0.00     0.163 HD
BRANCH  47  49
ATOM     49  CA  LEU d  10     -27.234 -18.089 -21.355  0.00  0.00     0.182 C 
BRANCH  49  50
ATOM     50  CB  LEU d  10     -26.910 -17.552 -22.741  0.00  0.00     0.040 C 
BRANCH  50  51
ATOM     51  CG  LEU d  10     -27.197 -18.511 -23.868  0.00  0.00    -0.020 C 
ATOM     52  CD1 LEU d  10     -27.805 -17.717 -25.008  0.00  0.00     0.009 C 
ATOM     53  CD2 LEU d  10     -25.946 -19.312 -24.183  0.00  0.00     0.009 C 
ENDBRANCH  50  51
ENDBRANCH  49  50
BRANCH  49  54
ATOM     54  C   LEU d  10     -28.582 -18.836 -21.197  0.00  0.00     0.163 C 
ATOM     55  OXT LEU d  10     -28.963 -19.769 -21.902  0.00  0.00    -0.648 OA
BRANCH  54  56
ATOM     56  O   LEU d  10     -29.325 -18.359 -20.178  0.00  0.00    -0.775 OA
ATOM     57  H   LEU d  10     -28.907 -18.573 -19.321  0.00  0.00     0.167 HD
ENDBRANCH  54  56
ENDBRANCH  49  54
ENDBRANCH  47  49
ENDBRANCH  37  45
ENDBRANCH  35  37
ENDBRANCH  25  33
ENDBRANCH  23  25
ENDBRANCH  18  21
ENDBRANCH   6  14
ENDBRANCH   4   6
ENDBRANCH   1   2
BRANCH   1  58
ATOM     58  N   ILE d   5     -22.355  -9.228 -12.963  0.00  0.00    -0.346 N 
ATOM     59  C   TYR d   4     -21.941  -7.911 -13.040  0.00  0.00     0.241 C 
ATOM     60  O   TYR d   4     -20.776  -7.595 -12.810  0.00  0.00    -0.271 OA
ATOM     61  H   ILE d   5     -23.185  -9.451 -13.505  0.00  0.00     0.163 HD
BRANCH  59  62
ATOM     62  CA  TYR d   4     -23.031  -6.841 -13.421  0.00  0.00     0.180 C 
BRANCH  62  63
ATOM     63  N   TYR d   4     -22.421  -5.472 -13.559  0.00  0.00    -0.346 N 
ATOM     64  C   VAL d   3     -23.152  -4.339 -13.207  0.00  0.00     0.241 C 
ATOM     65  O   VAL d   3     -24.278  -4.501 -12.746  0.00  0.00    -0.271 OA
ATOM     66  H   TYR d   4     -21.810  -5.345 -14.355  0.00  0.00     0.163 HD
BRANCH  64  67
ATOM     67  CA  VAL d   3     -22.520  -2.894 -13.464  0.00  0.00     0.180 C 
BRANCH  67  68
ATOM     68  N   VAL d   3     -23.367  -1.643 -13.597  0.00  0.00    -0.346 N 
ATOM     69  C   ARG d   2     -24.289  -0.912 -12.911  0.00  0.00     0.241 C 
ATOM     70  O   ARG d   2     -24.912  -0.098 -13.609  0.00  0.00    -0.271 OA
ATOM     71  H   VAL d   3     -23.554  -1.405 -14.572  0.00  0.00     0.163 HD
BRANCH  69  72
ATOM     72  CA  ARG d   2     -24.387  -0.911 -11.382  0.00  0.00     0.176 C 
BRANCH  72  73
ATOM     73  N   ARG d   2     -24.869  -2.216 -10.915  0.00  0.00    -0.346 N 
ATOM     74  C   ASP d   1     -25.777  -2.363  -9.895  0.00  0.00     0.252 C 
ATOM     75  O   ASP d   1     -26.091  -1.459  -9.117  0.00  0.00    -0.271 OA
ATOM     76  H   ARG d   2     -24.922  -2.918 -11.649  0.00  0.00     0.163 HD
BRANCH  74  77
ATOM     77  CA  ASP d   1     -26.358  -3.793  -9.727  0.00  0.00     0.318 C 
BRANCH  77  78
ATOM     78  N   ASP d   1     -25.305  -4.761 -10.146  0.00  0.00     0.092 N 
ATOM     79  H1  ASP d   1     -25.278  -5.548  -9.500  0.00  0.00     0.313 HD
ATOM     80  H2  ASP d   1     -24.397  -4.293 -10.011  0.00  0.00     0.313 HD
ENDBRANCH  77  78
BRANCH  77  81
ATOM     81  CB  ASP d   1     -26.756  -4.037  -8.267  0.00  0.00     0.155 C 
BRANCH  81  82
ATOM     82  CG  ASP d   1     -28.195  -3.684  -8.019  0.00  0.00     0.141 C 
ATOM     83  OD2 ASP d   1     -28.672  -3.252  -6.984  0.00  0.00    -0.650 OA
BRANCH  82  84
ATOM     84  OD1 ASP d   1     -28.951  -3.818  -9.126  0.00  0.00    -0.776 OA
ATOM     85  HD1 ASP d   1     -28.630  -3.125  -9.737  0.00  0.00     0.167 HD
ENDBRANCH  82  84
ENDBRANCH  81  82
ENDBRANCH  77  81
ENDBRANCH  74  77
ENDBRANCH  72  73
BRANCH  72  86
ATOM     86  CB  ARG d   2     -23.210  -0.196 -10.689  0.00  0.00     0.037 C 
BRANCH  86  87
ATOM     87  CG  ARG d   2     -23.157  -0.000  -9.165  0.00  0.00     0.024 C 
BRANCH  87  88
ATOM     88  CD  ARG d   2     -23.139   1.441  -8.669  0.00  0.00     0.152 C 
BRANCH  88  89
ATOM     89  NE  ARG d   2     -24.498   1.940  -8.546  0.00  0.00    -0.268 NA
ATOM     90  CZ  ARG d   2     -25.097   2.063  -7.443  0.00  0.00     0.143 C 
ATOM     91  NH1 ARG d   2     -26.365   2.506  -7.453  0.00  0.00    -0.278 NA
ATOM     92  NH2 ARG d   2     -24.680   1.779  -6.184  0.00  0.00    -0.278 NA
ATOM     93 1HH1 ARG d   2     -26.586   2.909  -8.375  0.00  0.00     0.126 HD
ATOM     94 2HH1 ARG d   2     -26.678   3.062  -6.678  0.00  0.00     0.126 HD
ATOM     95 1HH2 ARG d   2     -23.678   1.659  -6.076  0.00  0.00     0.126 HD
ATOM     96 2HH2 ARG d   2     -25.072   2.365  -5.446  0.00  0.00     0.126 HD
ENDBRANCH  88  89
ENDBRANCH  87  88
ENDBRANCH  86  87
ENDBRANCH  72  86
ENDBRANCH  69  72
ENDBRANCH  67  68
BRANCH  67  97
ATOM     97  CB  VAL d   3     -21.530  -2.508 -12.306  0.00  0.00     0.009 C 
ATOM     98  CG1 VAL d   3     -21.627  -3.508 -11.145  0.00  0.00     0.012 C 
ATOM     99  CG2 VAL d   3     -20.078  -2.261 -12.705  0.00  0.00     0.012 C 
ENDBRANCH  67  97
ENDBRANCH  64  67
ENDBRANCH  62  63
BRANCH  62 100
ATOM    100  CB  TYR d   4     -23.841  -7.232 -14.701  0.00  0.00     0.073 C 
BRANCH 100 101
ATOM    101  CG  TYR d   4     -23.078  -7.503 -15.993  0.00  0.00    -0.056 A 
ATOM    102  CD1 TYR d   4     -21.739  -7.104 -16.154  0.00  0.00     0.010 A 
ATOM    103  CE1 TYR d   4     -21.025  -7.411 -17.322  0.00  0.00     0.037 A 
ATOM    104  CZ  TYR d   4     -21.638  -8.102 -18.352  0.00  0.00     0.065 A 
ATOM    105  CE2 TYR d   4     -22.948  -8.530 -18.219  0.00  0.00     0.037 A 
ATOM    106  CD2 TYR d   4     -23.639  -8.248 -17.034  0.00  0.00     0.010 A 
BRANCH 104 107
ATOM    107  OH  TYR d   4     -20.936  -8.378 -19.481  0.00  0.00    -0.361 OA
ATOM    108  HH  TYR d   4     -20.017  -8.536 -19.199  0.00  0.00     0.217 HD
ENDBRANCH 104 107
ENDBRANCH 100 101
ENDBRANCH  62 100
ENDBRANCH  59  62
ENDBRANCH   1  58
BRANCH   1 109
ATOM    109  CB  ILE d   5     -20.800 -10.587 -11.332  0.00  0.00     0.013 C 
ATOM    110  CG2 ILE d   5     -19.296 -10.290 -11.255  0.00  0.00     0.012 C 
BRANCH 109 111
ATOM    111  CG1 ILE d   5     -21.621  -9.840 -10.244  0.00  0.00     0.002 C 
ATOM    112  CD1 ILE d   5     -20.989  -9.757  -8.860  0.00  0.00     0.005 C 
ENDBRANCH 109 111
ENDBRANCH   1 109
TORSDOF 41
ENDMDL
MODEL 3
REMARK VINA RESULT:      -9.1      2.624      6.678
REMARK WARNING: 32 MAX_TORS EXCEEDED!!!
REMARK  41 active torsions:
REMARK  status: ('A' for Active; 'I' for Inactive)
REMARK    1  A    between atoms: CB_3  and  CG1_2 
REMARK    2  A    between atoms: CA_4  and  CB_3 
REMARK    3  A    between atoms: CA_4  and  C_6 
REMARK    4  A    between atoms: CA_4  and  N_7 
REMARK       I    between atoms: C_6  and  N_8 
REMARK       I    between atoms: N_7  and  C_10 
REMARK    5  A    between atoms: N_8  and  CA_11 
REMARK    6  A    between atoms: CA_12  and  C_10 
REMARK    7  A    between atoms: CA_11  and  CB_15 
REMARK    8  A    between atoms: CA_11  and  C_14 
REMARK    9  A    between atoms: CA_12  and  N_17 
REMARK   10  A    between atoms: CA_12  and  CB_16 
REMARK       I    between atoms: C_14  and  N_18 
REMARK   11  A    between atoms: CB_15  and  CG_20 
REMARK   12  A    between atoms: CB_16  and  CG_21 
REMARK       I    between atoms: N_17  and  C_22 
REMARK   13  A    between atoms: C_22  and  CA_29 
REMARK   14  A    between atoms: CA_24  and  C_33 
REMARK   15  A    between atoms: CA_29  and  N_39 
REMARK   16  A    between atoms: CA_29  and  CB_38 
REMARK       I    between atoms: C_33  and  N_40 
REMARK       I    between atoms: N_39  and  C_45 
REMARK   17  A    between atoms: N_40  and  CA_46 
REMARK   18  A    between atoms: CZ_42  and  OH_47 
REMARK   19  A    between atoms: CA_48  and  C_45 
REMARK   20  A    between atoms: CA_46  and  CB_51 
REMARK   21  A    between atoms: CA_46  and  C_50 
REMARK   22  A    between atoms: CA_48  and  N_52 
REMARK   23  A    between atoms: CA_48  and  CB_53 
REMARK       I    between atoms: C_50  and  N_54 
REMARK   24  A    between atoms: CB_51  and  CG_56 
REMARK       I    between atoms: N_52  and  C_57 
REMARK   25  A    between atoms: CB_53  and  CG_58 
REMARK   26  A    between atoms: N_54  and  CA_59 
REMARK   27  A    between atoms: C_57  and  CA_62 
REMARK   28  A    between atoms: CG_58  and  CD_64 
REMARK   29  A    between atoms: CA_59  and  CB_66 
REMARK   30  A    between atoms: CA_59  and  C_65 
REMARK   31  A    between atoms: CA_62  and  N_70 
REMARK   32  A    between atoms: CA_62  and  CB_69 
REMARK   33  A    between atoms: CD_64  and  NE_71 
REMARK       I    between atoms: C_65  and  N_72 
REMARK   34  A    between atoms: CB_66  and  CG_74 
REMARK   35  A    between atoms: CB_69  and  CG_76 
REMARK   36  A    between atoms: N_72  and  CA_78 
REMARK   37  A    between atoms: CG_76  and  OD1_82 
REMARK       I    between atoms: CZ_77  and  NH1_83 
REMARK       I    between atoms: CZ_77  and  NH2_84 
REMARK   38  A    between atoms: CA_78  and  CB_86 
REMARK   39  A    between atoms: CA_78  and  C_85 
REMARK   40  A    between atoms: C_85  and  O_90 
REMARK   41  A    between atoms: CB_86  and  CG_91 
ROOT
ATOM      1  CA  ILE d   5     -19.742  -9.495  -9.493  0.00  0.00     0.180 C 
ENDROOT
BRANCH   1   2
ATOM      2  C   ILE d   5     -19.534 -10.772 -10.375  0.00  0.00     0.241 C 
ATOM      3  O   ILE d   5     -18.457 -11.365 -10.395  0.00  0.00    -0.271 OA
ATOM      4  N   HIS d   6     -20.573 -11.108 -11.209  0.00  0.00    -0.346 N 
ATOM      5  H   HIS d   6     -21.451 -10.637 -11.089  0.00  0.00     0.163 HD
BRANCH   4   6
ATOM      6  CA  HIS d   6     -20.781 -12.418 -11.843  0.00  0.00     0.182 C 
BRANCH   6   7
ATOM      7  CB  HIS d   6     -22.307 -12.702 -11.536  0.00  0.00     0.087 C 
BRANCH   7   8
ATOM      8  CG  HIS d   6     -22.945 -14.033 -11.722  0.00  0.00     0.010 C 
ATOM      9  CD2 HIS d   6     -23.626 -14.614 -12.779  0.00  0.00     0.136 C 
ATOM     10  NE2 HIS d   6     -23.868 -15.937 -12.506  0.00  0.00    -0.260 NA
ATOM     11  CE1 HIS d   6     -23.340 -16.135 -11.325  0.00  0.00     0.180 C 
ATOM     12  ND1 HIS d   6     -23.226 -14.922 -10.691  0.00  0.00    -0.256 NA
ATOM     13  HD1 HIS d   6     -23.976 -14.689 -10.062  0.00  0.00     0.134 HD
ENDBRANCH   7   8
ENDBRANCH   6   7
BRANCH   6  14
ATOM     14  C   HIS d   6     -20.442 -12.162 -13.391  0.00  0.00     0.243 C 
ATOM     15  O   HIS d   6     -20.627 -11.030 -13.860  0.00  0.00    -0.271 OA
ATOM     16  N   PRO d   7     -19.915 -13.174 -14.238  0.00  0.00    -0.337 N 
ATOM     17  CD  PRO d   7     -18.990 -14.212 -13.777  0.00  0.00     0.127 C 
ATOM     18  CA  PRO d   7     -19.517 -12.802 -15.648  0.00  0.00     0.179 C 
ATOM     19  CG  PRO d   7     -17.678 -13.902 -14.502  0.00  0.00     0.022 C 
ATOM     20  CB  PRO d   7     -17.990 -12.767 -15.480  0.00  0.00     0.037 C 
BRANCH  18  21
ATOM     21  C   PRO d   7     -19.851 -13.860 -16.790  0.00  0.00     0.241 C 
ATOM     22  O   PRO d   7     -18.974 -14.632 -17.198  0.00  0.00    -0.271 OA
ATOM     23  N   PHE d   8     -21.087 -14.054 -17.383  0.00  0.00    -0.346 N 
ATOM     24  H   PHE d   8     -20.929 -14.755 -18.098  0.00  0.00     0.163 HD
BRANCH  23  25
ATOM     25  CA  PHE d   8     -22.274 -13.178 -17.660  0.00  0.00     0.180 C 
BRANCH  25  26
ATOM     26  CB  PHE d   8     -21.850 -11.764 -18.258  0.00  0.00     0.073 C 
BRANCH  26  27
ATOM     27  CG  PHE d   8     -22.297 -10.416 -17.655  0.00  0.00    -0.056 C 
ATOM     28  CD1 PHE d   8     -21.386  -9.589 -16.995  0.00  0.00     0.007 C 
ATOM     29  CE1 PHE d   8     -21.764  -8.319 -16.508  0.00  0.00     0.001 C 
ATOM     30  CZ  PHE d   8     -23.084  -7.870 -16.600  0.00  0.00     0.000 C 
ATOM     31  CE2 PHE d   8     -23.999  -8.648 -17.274  0.00  0.00     0.001 C 
ATOM     32  CD2 PHE d   8     -23.572  -9.841 -17.855  0.00  0.00     0.007 C 
ENDBRANCH  26  27
ENDBRANCH  25  26
BRANCH  25  33
ATOM     33  C   PHE d   8     -23.322 -13.915 -18.496  0.00  0.00     0.241 C 
ATOM     34  O   PHE d   8     -23.130 -14.092 -19.689  0.00  0.00    -0.271 OA
ATOM     35  N   HIS d   9     -24.513 -14.340 -18.002  0.00  0.00    -0.346 N 
ATOM     36  H   HIS d   9     -24.958 -14.844 -18.754  0.00  0.00     0.163 HD
BRANCH  35  37
ATOM     37  CA  HIS d   9     -25.054 -14.552 -16.645  0.00  0.00     0.182 C 
BRANCH  37  38
ATOM     38  CB  HIS d   9     -25.690 -13.426 -15.788  0.00  0.00     0.093 C 
BRANCH  38  39
ATOM     39  CG  HIS d   9     -26.631 -12.543 -16.489  0.00  0.00     0.030 C 
ATOM     40  CD2 HIS d   9     -26.756 -11.186 -16.454  0.00  0.00     0.143 C 
ATOM     41  NE2 HIS d   9     -27.634 -10.748 -17.403  0.00  0.00    -0.254 NA
ATOM     42  CE1 HIS d   9     -28.115 -11.838 -17.947  0.00  0.00     0.207 C 
ATOM     43  ND1 HIS d   9     -27.656 -12.952 -17.304  0.00  0.00    -0.353 N 
ATOM     44  HD1 HIS d   9     -28.003 -13.892 -17.433  0.00  0.00     0.166 HD
ENDBRANCH  38  39
ENDBRANCH  37  38
BRANCH  37  45
ATOM     45  C   HIS d   9     -25.624 -15.967 -16.275  0.00  0.00     0.241 C 
ATOM     46  O   HIS d   9     -25.873 -16.246 -15.096  0.00  0.00    -0.271 OA
ATOM     47  N   LEU d  10     -25.794 -16.998 -17.160  0.00  0.00    -0.345 N 
ATOM     48  H   LEU d  10     -26.099 -17.800 -16.613  0.00  0.00     0.163 HD
BRANCH  47  49
ATOM     49  CA  LEU d  10     -26.479 -17.013 -18.472  0.00  0.00     0.182 C 
BRANCH  49  50
ATOM     50  CB  LEU d  10     -26.487 -18.390 -19.117  0.00  0.00     0.040 C 
BRANCH  50  51
ATOM     51  CG  LEU d  10     -25.447 -18.586 -20.192  0.00  0.00    -0.020 C 
ATOM     52  CD1 LEU d  10     -24.766 -17.252 -20.426  0.00  0.00     0.009 C 
ATOM     53  CD2 LEU d  10     -24.553 -19.757 -19.823  0.00  0.00     0.009 C 
ENDBRANCH  50  51
ENDBRANCH  49  50
BRANCH  49  54
ATOM     54  C   LEU d  10     -27.845 -16.291 -18.358  0.00  0.00     0.163 C 
ATOM     55  OXT LEU d  10     -28.761 -16.620 -17.606  0.00  0.00    -0.648 OA
BRANCH  54  56
ATOM     56  O   LEU d  10     -27.941 -15.228 -19.182  0.00  0.00    -0.775 OA
ATOM     57  H   LEU d  10     -27.783 -15.498 -20.107  0.00  0.00     0.167 HD
ENDBRANCH  54  56
ENDBRANCH  49  54
ENDBRANCH  47  49
ENDBRANCH  37  45
ENDBRANCH  35  37
ENDBRANCH  25  33
ENDBRANCH  23  25
ENDBRANCH  18  21
ENDBRANCH   6  14
ENDBRANCH   4   6
ENDBRANCH   1   2
BRANCH   1  58
ATOM     58  N   ILE d   5     -20.889  -8.775 -10.086  0.00  0.00    -0.346 N 
ATOM     59  C   TYR d   4     -20.777  -7.615 -10.831  0.00  0.00     0.241 C 
ATOM     60  O   TYR d   4     -19.702  -7.030 -10.940  0.00  0.00    -0.271 OA
ATOM     61  H   ILE d   5     -21.669  -9.375 -10.339  0.00  0.00     0.163 HD
BRANCH  59  62
ATOM     62  CA  TYR d   4     -22.088  -7.077 -11.518  0.00  0.00     0.180 C 
BRANCH  62  63
ATOM     63  N   TYR d   4     -21.980  -5.605 -11.811  0.00  0.00    -0.346 N 
ATOM     64  C   VAL d   3     -22.953  -4.724 -11.343  0.00  0.00     0.241 C 
ATOM     65  O   VAL d   3     -23.862  -5.181 -10.657  0.00  0.00    -0.271 OA
ATOM     66  H   TYR d   4     -21.602  -5.367 -12.718  0.00  0.00     0.163 HD
BRANCH  64  67
ATOM     67  CA  VAL d   3     -22.872  -3.183 -11.760  0.00  0.00     0.180 C 
BRANCH  67  68
ATOM     68  N   VAL d   3     -22.106  -2.155 -10.948  0.00  0.00    -0.346 N 
ATOM     69  C   ARG d   2     -22.243  -0.906 -10.423  0.00  0.00     0.241 C 
ATOM     70  O   ARG d   2     -21.174  -0.381 -10.077  0.00  0.00    -0.271 OA
ATOM     71  H   VAL d   3     -21.095  -2.260 -11.048  0.00  0.00     0.163 HD
BRANCH  69  72
ATOM     72  CA  ARG d   2     -23.601  -0.296 -10.060  0.00  0.00     0.176 C 
BRANCH  72  73
ATOM     73  N   ARG d   2     -24.522  -0.425 -11.196  0.00  0.00    -0.346 N 
ATOM     74  C   ASP d   1     -24.484   0.398 -12.295  0.00  0.00     0.252 C 
ATOM     75  O   ASP d   1     -23.854   1.457 -12.340  0.00  0.00    -0.271 OA
ATOM     76  H   ARG d   2     -24.813  -1.382 -11.378  0.00  0.00     0.163 HD
BRANCH  74  77
ATOM     77  CA  ASP d   1     -25.355  -0.060 -13.495  0.00  0.00     0.318 C 
BRANCH  77  78
ATOM     78  N   ASP d   1     -26.675  -0.494 -12.956  0.00  0.00     0.092 N 
ATOM     79  H1  ASP d   1     -27.366  -0.520 -13.704  0.00  0.00     0.313 HD
ATOM     80  H2  ASP d   1     -27.005   0.257 -12.333  0.00  0.00     0.313 HD
ENDBRANCH  77  78
BRANCH  77  81
ATOM     81  CB  ASP d   1     -25.538   1.092 -14.489  0.00  0.00     0.155 C 
BRANCH  81  82
ATOM     82  CG  ASP d   1     -26.989   1.358 -14.767  0.00  0.00     0.141 C 
ATOM     83  OD2 ASP d   1     -27.611   2.371 -14.494  0.00  0.00    -0.650 OA
BRANCH  82  84
ATOM     84  OD1 ASP d   1     -27.569   0.357 -15.457  0.00  0.00    -0.776 OA
ATOM     85  HD1 ASP d   1     -28.530   0.517 -15.378  0.00  0.00     0.167 HD
ENDBRANCH  82  84
ENDBRANCH  81  82
ENDBRANCH  77  81
ENDBRANCH  74  77
ENDBRANCH  72  73
BRANCH  72  86
ATOM     86  CB  ARG d   2     -24.054  -0.611  -8.620  0.00  0.00     0.037 C 
BRANCH  86  87
ATOM     87  CG  ARG d   2     -23.536   0.183  -7.410  0.00  0.00     0.024 C 
BRANCH  87  88
ATOM     88  CD  ARG d   2     -23.925   1.656  -7.351  0.00  0.00     0.152 C 
BRANCH  88  89
ATOM     89  NE  ARG d   2     -24.815   1.889  -6.227  0.00  0.00    -0.268 NA
ATOM     90  CZ  ARG d   2     -25.980   2.360  -6.347  0.00  0.00     0.143 C 
ATOM     91  NH1 ARG d   2     -26.702   2.563  -5.233  0.00  0.00    -0.278 NA
ATOM     92  NH2 ARG d   2     -26.655   2.753  -7.455  0.00  0.00    -0.278 NA
ATOM     93 1HH1 ARG d   2     -26.265   2.071  -4.440  0.00  0.00     0.126 HD
ATOM     94 2HH1 ARG d   2     -27.698   2.446  -5.287  0.00  0.00     0.126 HD
ATOM     95 1HH2 ARG d   2     -26.270   2.426  -8.336  0.00  0.00     0.126 HD
ATOM     96 2HH2 ARG d   2     -27.668   2.638  -7.420  0.00  0.00     0.126 HD
ENDBRANCH  88  89
ENDBRANCH  87  88
ENDBRANCH  86  87
ENDBRANCH  72  86
ENDBRANCH  69  72
ENDBRANCH  67  68
BRANCH  67  97
ATOM     97  CB  VAL d   3     -22.232  -3.028 -13.187  0.00  0.00     0.009 C 
ATOM     98  CG1 VAL d   3     -23.094  -2.123 -14.079  0.00  0.00     0.012 C 
ATOM     99  CG2 VAL d   3     -20.764  -2.615 -13.234  0.00  0.00     0.012 C 
ENDBRANCH  67  97
ENDBRANCH  64  67
ENDBRANCH  62  63
BRANCH  62 100
ATOM    100  CB  TYR d   4     -22.474  -7.884 -12.801  0.00  0.00     0.073 C 
BRANCH 100 101
ATOM    101  CG  TYR d   4     -23.502  -9.004 -12.678  0.00  0.00    -0.056 A 
ATOM    102  CD1 TYR d   4     -24.318  -9.130 -11.540  0.00  0.00     0.010 A 
ATOM    103  CE1 TYR d   4     -25.304 -10.125 -11.460  0.00  0.00     0.037 A 
ATOM    104  CZ  TYR d   4     -25.478 -11.019 -12.501  0.00  0.00     0.065 A 
ATOM    105  CE2 TYR d   4     -24.708 -10.909 -13.647  0.00  0.00     0.037 A 
ATOM    106  CD2 TYR d   4     -23.751  -9.890 -13.729  0.00  0.00     0.010 A 
BRANCH 104 107
ATOM    107  OH  TYR d   4     -26.428 -11.984 -12.401  0.00  0.00    -0.361 OA
ATOM    108  HH  TYR d   4     -27.245 -11.535 -12.119  0.00  0.00     0.217 HD
ENDBRANCH 104 107
ENDBRANCH 100 101
ENDBRANCH  62 100
ENDBRANCH  59  62
ENDBRANCH   1  58
BRANCH   1 109
ATOM    109  CB  ILE d   5     -19.728  -9.748  -7.935  0.00  0.00     0.013 C 
ATOM    110  CG2 ILE d   5     -18.328  -9.804  -7.307  0.00  0.00     0.012 C 
BRANCH 109 111
ATOM    111  CG1 ILE d   5     -20.676  -8.752  -7.209  0.00  0.00     0.002 C 
ATOM    112  CD1 ILE d   5     -22.117  -9.210  -7.019  0.00  0.00     0.005 C 
ENDBRANCH 109 111
ENDBRANCH   1 109
TORSDOF 41
ENDMDL
MODEL 4
REMARK VINA RESULT:      -9.0      2.758      6.301
REMARK WARNING: 32 MAX_TORS EXCEEDED!!!
REMARK  41 active torsions:
REMARK  status: ('A' for Active; 'I' for Inactive)
REMARK    1  A    between atoms: CB_3  and  CG1_2 
REMARK    2  A    between atoms: CA_4  and  CB_3 
REMARK    3  A    between atoms: CA_4  and  C_6 
REMARK    4  A    between atoms: CA_4  and  N_7 
REMARK       I    between atoms: C_6  and  N_8 
REMARK       I    between atoms: N_7  and  C_10 
REMARK    5  A    between atoms: N_8  and  CA_11 
REMARK    6  A    between atoms: CA_12  and  C_10 
REMARK    7  A    between atoms: CA_11  and  CB_15 
REMARK    8  A    between atoms: CA_11  and  C_14 
REMARK    9  A    between atoms: CA_12  and  N_17 
REMARK   10  A    between atoms: CA_12  and  CB_16 
REMARK       I    between atoms: C_14  and  N_18 
REMARK   11  A    between atoms: CB_15  and  CG_20 
REMARK   12  A    between atoms: CB_16  and  CG_21 
REMARK       I    between atoms: N_17  and  C_22 
REMARK   13  A    between atoms: C_22  and  CA_29 
REMARK   14  A    between atoms: CA_24  and  C_33 
REMARK   15  A    between atoms: CA_29  and  N_39 
REMARK   16  A    between atoms: CA_29  and  CB_38 
REMARK       I    between atoms: C_33  and  N_40 
REMARK       I    between atoms: N_39  and  C_45 
REMARK   17  A    between atoms: N_40  and  CA_46 
REMARK   18  A    between atoms: CZ_42  and  OH_47 
REMARK   19  A    between atoms: CA_48  and  C_45 
REMARK   20  A    between atoms: CA_46  and  CB_51 
REMARK   21  A    between atoms: CA_46  and  C_50 
REMARK   22  A    between atoms: CA_48  and  N_52 
REMARK   23  A    between atoms: CA_48  and  CB_53 
REMARK       I    between atoms: C_50  and  N_54 
REMARK   24  A    between atoms: CB_51  and  CG_56 
REMARK       I    between atoms: N_52  and  C_57 
REMARK   25  A    between atoms: CB_53  and  CG_58 
REMARK   26  A    between atoms: N_54  and  CA_59 
REMARK   27  A    between atoms: C_57  and  CA_62 
REMARK   28  A    between atoms: CG_58  and  CD_64 
REMARK   29  A    between atoms: CA_59  and  CB_66 
REMARK   30  A    between atoms: CA_59  and  C_65 
REMARK   31  A    between atoms: CA_62  and  N_70 
REMARK   32  A    between atoms: CA_62  and  CB_69 
REMARK   33  A    between atoms: CD_64  and  NE_71 
REMARK       I    between atoms: C_65  and  N_72 
REMARK   34  A    between atoms: CB_66  and  CG_74 
REMARK   35  A    between atoms: CB_69  and  CG_76 
REMARK   36  A    between atoms: N_72  and  CA_78 
REMARK   37  A    between atoms: CG_76  and  OD1_82 
REMARK       I    between atoms: CZ_77  and  NH1_83 
REMARK       I    between atoms: CZ_77  and  NH2_84 
REMARK   38  A    between atoms: CA_78  and  CB_86 
REMARK   39  A    between atoms: CA_78  and  C_85 
REMARK   40  A    between atoms: C_85  and  O_90 
REMARK   41  A    between atoms: CB_86  and  CG_91 
ROOT
ATOM      1  CA  ILE d   5     -20.880  -9.366 -10.873  0.00  0.00     0.180 C 
ENDROOT
BRANCH   1   2
ATOM      2  C   ILE d   5     -20.383 -10.497 -11.835  0.00  0.00     0.241 C 
ATOM      3  O   ILE d   5     -19.253 -10.972 -11.730  0.00  0.00    -0.271 OA
ATOM      4  N   HIS d   6     -21.226 -10.831 -12.866  0.00  0.00    -0.346 N 
ATOM      5  H   HIS d   6     -22.163 -10.469 -12.851  0.00  0.00     0.163 HD
BRANCH   4   6
ATOM      6  CA  HIS d   6     -21.172 -12.068 -13.661  0.00  0.00     0.182 C 
BRANCH   6   7
ATOM      7  CB  HIS d   6     -22.684 -12.534 -13.660  0.00  0.00     0.087 C 
BRANCH   7   8
ATOM      8  CG  HIS d   6     -23.717 -11.958 -12.757  0.00  0.00     0.010 C 
ATOM      9  CD2 HIS d   6     -24.437 -12.477 -11.694  0.00  0.00     0.136 C 
ATOM     10  NE2 HIS d   6     -25.148 -11.476 -11.080  0.00  0.00    -0.260 NA
ATOM     11  CE1 HIS d   6     -24.852 -10.395 -11.757  0.00  0.00     0.180 C 
ATOM     12  ND1 HIS d   6     -24.397 -10.770 -12.998  0.00  0.00    -0.256 NA
ATOM     13  HD1 HIS d   6     -25.085 -10.764 -13.733  0.00  0.00     0.134 HD
ENDBRANCH   7   8
ENDBRANCH   6   7
BRANCH   6  14
ATOM     14  C   HIS d   6     -20.614 -11.591 -15.088  0.00  0.00     0.243 C 
ATOM     15  O   HIS d   6     -20.914 -10.460 -15.496  0.00  0.00    -0.271 OA
ATOM     16  N   PRO d   7     -19.770 -12.405 -15.891  0.00  0.00    -0.337 N 
ATOM     17  CD  PRO d   7     -18.771 -13.322 -15.341  0.00  0.00     0.127 C 
ATOM     18  CA  PRO d   7     -19.201 -11.821 -17.164  0.00  0.00     0.179 C 
ATOM     19  CG  PRO d   7     -17.427 -12.725 -15.770  0.00  0.00     0.022 C 
ATOM     20  CB  PRO d   7     -17.760 -11.556 -16.700  0.00  0.00     0.037 C 
BRANCH  18  21
ATOM     21  C   PRO d   7     -19.128 -12.787 -18.427  0.00  0.00     0.241 C 
ATOM     22  O   PRO d   7     -18.156 -13.537 -18.581  0.00  0.00    -0.271 OA
ATOM     23  N   PHE d   8     -20.100 -12.922 -19.405  0.00  0.00    -0.346 N 
ATOM     24  H   PHE d   8     -19.708 -13.570 -20.078  0.00  0.00     0.163 HD
BRANCH  23  25
ATOM     25  CA  PHE d   8     -21.142 -12.013 -19.991  0.00  0.00     0.180 C 
BRANCH  25  26
ATOM     26  CB  PHE d   8     -20.496 -10.773 -20.754  0.00  0.00     0.073 C 
BRANCH  26  27
ATOM     27  CG  PHE d   8     -19.576  -9.739 -20.072  0.00  0.00    -0.056 C 
ATOM     28  CD1 PHE d   8     -20.055  -8.917 -19.050  0.00  0.00     0.007 C 
ATOM     29  CE1 PHE d   8     -19.203  -8.023 -18.364  0.00  0.00     0.001 C 
ATOM     30  CZ  PHE d   8     -17.864  -7.872 -18.731  0.00  0.00     0.000 C 
ATOM     31  CE2 PHE d   8     -17.353  -8.692 -19.712  0.00  0.00     0.001 C 
ATOM     32  CD2 PHE d   8     -18.182  -9.653 -20.288  0.00  0.00     0.007 C 
ENDBRANCH  26  27
ENDBRANCH  25  26
BRANCH  25  33
ATOM     33  C   PHE d   8     -22.152 -12.798 -20.828  0.00  0.00     0.241 C 
ATOM     34  O   PHE d   8     -22.116 -12.724 -22.047  0.00  0.00    -0.271 OA
ATOM     35  N   HIS d   9     -23.156 -13.540 -20.293  0.00  0.00    -0.346 N 
ATOM     36  H   HIS d   9     -23.610 -13.989 -21.073  0.00  0.00     0.163 HD
BRANCH  35  37
ATOM     37  CA  HIS d   9     -23.434 -14.088 -18.952  0.00  0.00     0.182 C 
BRANCH  37  38
ATOM     38  CB  HIS d   9     -22.612 -15.233 -18.304  0.00  0.00     0.093 C 
BRANCH  38  39
ATOM     39  CG  HIS d   9     -23.387 -16.381 -17.818  0.00  0.00     0.030 C 
ATOM     40  CD2 HIS d   9     -23.658 -16.785 -16.545  0.00  0.00     0.143 C 
ATOM     41  NE2 HIS d   9     -24.575 -17.796 -16.533  0.00  0.00    -0.254 NA
ATOM     42  CE1 HIS d   9     -24.789 -18.073 -17.795  0.00  0.00     0.207 C 
ATOM     43  ND1 HIS d   9     -23.960 -17.349 -18.604  0.00  0.00    -0.353 N 
ATOM     44  HD1 HIS d   9     -23.823 -17.500 -19.594  0.00  0.00     0.166 HD
ENDBRANCH  38  39
ENDBRANCH  37  38
BRANCH  37  45
ATOM     45  C   HIS d   9     -24.086 -13.149 -17.875  0.00  0.00     0.241 C 
ATOM     46  O   HIS d   9     -23.432 -12.224 -17.382  0.00  0.00    -0.271 OA
ATOM     47  N   LEU d  10     -25.336 -13.319 -17.343  0.00  0.00    -0.345 N 
ATOM     48  H   LEU d  10     -25.442 -12.609 -16.622  0.00  0.00     0.163 HD
BRANCH  47  49
ATOM     49  CA  LEU d  10     -26.635 -13.518 -18.025  0.00  0.00     0.182 C 
BRANCH  49  50
ATOM     50  CB  LEU d  10     -26.826 -12.586 -19.212  0.00  0.00     0.040 C 
BRANCH  50  51
ATOM     51  CG  LEU d  10     -27.935 -11.578 -19.046  0.00  0.00    -0.020 C 
ATOM     52  CD1 LEU d  10     -27.806 -10.971 -17.662  0.00  0.00     0.009 C 
ATOM     53  CD2 LEU d  10     -27.924 -10.615 -20.220  0.00  0.00     0.009 C 
ENDBRANCH  50  51
ENDBRANCH  49  50
BRANCH  49  54
ATOM     54  C   LEU d  10     -26.863 -15.029 -18.284  0.00  0.00     0.163 C 
ATOM     55  OXT LEU d  10     -27.444 -15.799 -17.521  0.00  0.00    -0.648 OA
BRANCH  54  56
ATOM     56  O   LEU d  10     -26.354 -15.437 -19.464  0.00  0.00    -0.775 OA
ATOM     57  H   LEU d  10     -26.599 -14.814 -20.175  0.00  0.00     0.167 HD
ENDBRANCH  54  56
ENDBRANCH  49  54
ENDBRANCH  47  49
ENDBRANCH  37  45
ENDBRANCH  35  37
ENDBRANCH  25  33
ENDBRANCH  23  25
ENDBRANCH  18  21
ENDBRANCH   6  14
ENDBRANCH   4   6
ENDBRANCH   1   2
BRANCH   1  58
ATOM     58  N   ILE d   5     -21.800  -8.529 -11.674  0.00  0.00    -0.346 N 
ATOM     59  C   TYR d   4     -21.396  -7.463 -12.457  0.00  0.00     0.241 C 
ATOM     60  O   TYR d   4     -20.236  -7.059 -12.434  0.00  0.00    -0.271 OA
ATOM     61  H   ILE d   5     -22.623  -9.022 -12.009  0.00  0.00     0.163 HD
BRANCH  59  62
ATOM     62  CA  TYR d   4     -22.492  -6.788 -13.365  0.00  0.00     0.180 C 
BRANCH  62  63
ATOM     63  N   TYR d   4     -22.913  -5.457 -12.804  0.00  0.00    -0.346 N 
ATOM     64  C   VAL d   3     -22.272  -4.289 -13.213  0.00  0.00     0.241 C 
ATOM     65  O   VAL d   3     -21.395  -4.382 -14.066  0.00  0.00    -0.271 OA
ATOM     66  H   TYR d   4     -23.194  -5.461 -11.832  0.00  0.00     0.163 HD
BRANCH  64  67
ATOM     67  CA  VAL d   3     -22.666  -2.903 -12.522  0.00  0.00     0.180 C 
BRANCH  67  68
ATOM     68  N   VAL d   3     -24.055  -2.624 -11.981  0.00  0.00    -0.346 N 
ATOM     69  C   ARG d   2     -24.777  -1.640 -11.375  0.00  0.00     0.241 C 
ATOM     70  O   ARG d   2     -25.833  -2.032 -10.857  0.00  0.00    -0.271 OA
ATOM     71  H   VAL d   3     -24.540  -3.478 -11.703  0.00  0.00     0.163 HD
BRANCH  69  72
ATOM     72  CA  ARG d   2     -24.450  -0.151 -11.523  0.00  0.00     0.176 C 
BRANCH  72  73
ATOM     73  N   ARG d   2     -23.813   0.342 -10.295  0.00  0.00    -0.346 N 
ATOM     74  C   ASP d   1     -23.576   1.672 -10.051  0.00  0.00     0.252 C 
ATOM     75  O   ASP d   1     -23.643   2.553 -10.912  0.00  0.00    -0.271 OA
ATOM     76  H   ARG d   2     -24.020  -0.221  -9.474  0.00  0.00     0.163 HD
BRANCH  74  77
ATOM     77  CA  ASP d   1     -23.143   2.011  -8.599  0.00  0.00     0.318 C 
BRANCH  77  78
ATOM     78  N   ASP d   1     -23.460   3.448  -8.357  0.00  0.00     0.092 N 
ATOM     79  H1  ASP d   1     -23.755   3.582  -7.391  0.00  0.00     0.313 HD
ATOM     80  H2  ASP d   1     -24.301   3.666  -8.910  0.00  0.00     0.313 HD
ENDBRANCH  77  78
BRANCH  77  81
ATOM     81  CB  ASP d   1     -23.893   1.124  -7.599  0.00  0.00     0.155 C 
BRANCH  81  82
ATOM     82  CG  ASP d   1     -24.971   1.886  -6.883  0.00  0.00     0.141 C 
ATOM     83  OD2 ASP d   1     -26.063   2.196  -7.326  0.00  0.00    -0.650 OA
BRANCH  82  84
ATOM     84  OD1 ASP d   1     -24.645   2.147  -5.602  0.00  0.00    -0.776 OA
ATOM     85  HD1 ASP d   1     -24.177   3.005  -5.630  0.00  0.00     0.167 HD
ENDBRANCH  82  84
ENDBRANCH  81  82
ENDBRANCH  77  81
ENDBRANCH  74  77
ENDBRANCH  72  73
BRANCH  72  86
ATOM     86  CB  ARG d   2     -23.906   0.226 -12.915  0.00  0.00     0.037 C 
BRANCH  86  87
ATOM     87  CG  ARG d   2     -24.708  -0.031 -14.202  0.00  0.00     0.024 C 
BRANCH  87  88
ATOM     88  CD  ARG d   2     -25.683   1.063 -14.620  0.00  0.00     0.152 C 
BRANCH  88  89
ATOM     89  NE  ARG d   2     -27.041   0.672 -14.280  0.00  0.00    -0.268 NA
ATOM     90  CZ  ARG d   2     -28.060   1.344 -14.600  0.00  0.00     0.143 C 
ATOM     91  NH1 ARG d   2     -29.264   0.902 -14.204  0.00  0.00    -0.278 NA
ATOM     92  NH2 ARG d   2     -28.158   2.516 -15.276  0.00  0.00    -0.278 NA
ATOM     93 1HH1 ARG d   2     -29.189  -0.076 -13.885  0.00  0.00     0.126 HD
ATOM     94 2HH1 ARG d   2     -30.052   1.077 -14.801  0.00  0.00     0.126 HD
ATOM     95 1HH2 ARG d   2     -27.329   2.789 -15.793  0.00  0.00     0.126 HD
ATOM     96 2HH2 ARG d   2     -29.006   2.635 -15.831  0.00  0.00     0.126 HD
ENDBRANCH  88  89
ENDBRANCH  87  88
ENDBRANCH  86  87
ENDBRANCH  72  86
ENDBRANCH  69  72
ENDBRANCH  67  68
BRANCH  67  97
ATOM     97  CB  VAL d   3     -21.758  -2.630 -11.269  0.00  0.00     0.009 C 
ATOM     98  CG1 VAL d   3     -20.947  -3.880 -10.896  0.00  0.00     0.012 C 
ATOM     99  CG2 VAL d   3     -20.869  -1.391 -11.327  0.00  0.00     0.012 C 
ENDBRANCH  67  97
ENDBRANCH  64  67
ENDBRANCH  62  63
BRANCH  62 100
ATOM    100  CB  TYR d   4     -22.045  -6.659 -14.858  0.00  0.00     0.073 C 
BRANCH 100 101
ATOM    101  CG  TYR d   4     -22.881  -7.346 -15.933  0.00  0.00    -0.056 A 
ATOM    102  CD1 TYR d   4     -22.654  -7.113 -17.301  0.00  0.00     0.010 A 
ATOM    103  CE1 TYR d   4     -23.387  -7.794 -18.285  0.00  0.00     0.037 A 
ATOM    104  CZ  TYR d   4     -24.366  -8.701 -17.921  0.00  0.00     0.065 A 
ATOM    105  CE2 TYR d   4     -24.600  -8.972 -16.584  0.00  0.00     0.037 A 
ATOM    106  CD2 TYR d   4     -23.839  -8.311 -15.612  0.00  0.00     0.010 A 
BRANCH 104 107
ATOM    107  OH  TYR d   4     -25.075  -9.341 -18.887  0.00  0.00    -0.361 OA
ATOM    108  HH  TYR d   4     -25.969  -8.956 -18.869  0.00  0.00     0.217 HD
ENDBRANCH 104 107
ENDBRANCH 100 101
ENDBRANCH  62 100
ENDBRANCH  59  62
ENDBRANCH   1  58
BRANCH   1 109
ATOM    109  CB  ILE d   5     -21.348  -9.856  -9.448  0.00  0.00     0.013 C 
ATOM    110  CG2 ILE d   5     -20.267  -9.785  -8.359  0.00  0.00     0.012 C 
BRANCH 109 111
ATOM    111  CG1 ILE d   5     -22.671  -9.154  -9.033  0.00  0.00     0.002 C 
ATOM    112  CD1 ILE d   5     -22.946  -9.063  -7.538  0.00  0.00     0.005 C 
ENDBRANCH 109 111
ENDBRANCH   1 109
TORSDOF 41
ENDMDL
MODEL 5
REMARK VINA RESULT:      -9.0      7.965     15.204
REMARK WARNING: 32 MAX_TORS EXCEEDED!!!
REMARK  41 active torsions:
REMARK  status: ('A' for Active; 'I' for Inactive)
REMARK    1  A    between atoms: CB_3  and  CG1_2 
REMARK    2  A    between atoms: CA_4  and  CB_3 
REMARK    3  A    between atoms: CA_4  and  C_6 
REMARK    4  A    between atoms: CA_4  and  N_7 
REMARK       I    between atoms: C_6  and  N_8 
REMARK       I    between atoms: N_7  and  C_10 
REMARK    5  A    between atoms: N_8  and  CA_11 
REMARK    6  A    between atoms: CA_12  and  C_10 
REMARK    7  A    between atoms: CA_11  and  CB_15 
REMARK    8  A    between atoms: CA_11  and  C_14 
REMARK    9  A    between atoms: CA_12  and  N_17 
REMARK   10  A    between atoms: CA_12  and  CB_16 
REMARK       I    between atoms: C_14  and  N_18 
REMARK   11  A    between atoms: CB_15  and  CG_20 
REMARK   12  A    between atoms: CB_16  and  CG_21 
REMARK       I    between atoms: N_17  and  C_22 
REMARK   13  A    between atoms: C_22  and  CA_29 
REMARK   14  A    between atoms: CA_24  and  C_33 
REMARK   15  A    between atoms: CA_29  and  N_39 
REMARK   16  A    between atoms: CA_29  and  CB_38 
REMARK       I    between atoms: C_33  and  N_40 
REMARK       I    between atoms: N_39  and  C_45 
REMARK   17  A    between atoms: N_40  and  CA_46 
REMARK   18  A    between atoms: CZ_42  and  OH_47 
REMARK   19  A    between atoms: CA_48  and  C_45 
REMARK   20  A    between atoms: CA_46  and  CB_51 
REMARK   21  A    between atoms: CA_46  and  C_50 
REMARK   22  A    between atoms: CA_48  and  N_52 
REMARK   23  A    between atoms: CA_48  and  CB_53 
REMARK       I    between atoms: C_50  and  N_54 
REMARK   24  A    between atoms: CB_51  and  CG_56 
REMARK       I    between atoms: N_52  and  C_57 
REMARK   25  A    between atoms: CB_53  and  CG_58 
REMARK   26  A    between atoms: N_54  and  CA_59 
REMARK   27  A    between atoms: C_57  and  CA_62 
REMARK   28  A    between atoms: CG_58  and  CD_64 
REMARK   29  A    between atoms: CA_59  and  CB_66 
REMARK   30  A    between atoms: CA_59  and  C_65 
REMARK   31  A    between atoms: CA_62  and  N_70 
REMARK   32  A    between atoms: CA_62  and  CB_69 
REMARK   33  A    between atoms: CD_64  and  NE_71 
REMARK       I    between atoms: C_65  and  N_72 
REMARK   34  A    between atoms: CB_66  and  CG_74 
REMARK   35  A    between atoms: CB_69  and  CG_76 
REMARK   36  A    between atoms: N_72  and  CA_78 
REMARK   37  A    between atoms: CG_76  and  OD1_82 
REMARK       I    between atoms: CZ_77  and  NH1_83 
REMARK       I    between atoms: CZ_77  and  NH2_84 
REMARK   38  A    between atoms: CA_78  and  CB_86 
REMARK   39  A    between atoms: CA_78  and  C_85 
REMARK   40  A    between atoms: C_85  and  O_90 
REMARK   41  A    between atoms: CB_86  and  CG_91 
ROOT
ATOM      1  CA  ILE d   5     -22.649  -8.485  -7.770  0.00  0.00     0.180 C 
ENDROOT
BRANCH   1   2
ATOM      2  C   ILE d   5     -23.631  -8.172  -6.590  0.00  0.00     0.241 C 
ATOM      3  O   ILE d   5     -24.772  -7.765  -6.802  0.00  0.00    -0.271 OA
ATOM      4  N   HIS d   6     -23.105  -8.258  -5.325  0.00  0.00    -0.346 N 
ATOM      5  H   HIS d   6     -22.197  -8.672  -5.214  0.00  0.00     0.163 HD
BRANCH   4   6
ATOM      6  CA  HIS d   6     -23.873  -8.376  -4.076  0.00  0.00     0.182 C 
BRANCH   6   7
ATOM      7  CB  HIS d   6     -23.581  -9.869  -3.641  0.00  0.00     0.087 C 
BRANCH   7   8
ATOM      8  CG  HIS d   6     -24.648 -10.884  -3.432  0.00  0.00     0.010 C 
ATOM      9  CD2 HIS d   6     -25.726 -11.293  -4.199  0.00  0.00     0.136 C 
ATOM     10  NE2 HIS d   6     -26.315 -12.393  -3.627  0.00  0.00    -0.260 NA
ATOM     11  CE1 HIS d   6     -25.602 -12.631  -2.554  0.00  0.00     0.180 C 
ATOM     12  ND1 HIS d   6     -24.938 -11.479  -2.210  0.00  0.00    -0.256 NA
ATOM     13  HD1 HIS d   6     -25.385 -10.914  -1.506  0.00  0.00     0.134 HD
ENDBRANCH   7   8
ENDBRANCH   6   7
BRANCH   6  14
ATOM     14  C   HIS d   6     -23.237  -7.257  -3.118  0.00  0.00     0.243 C 
ATOM     15  O   HIS d   6     -23.030  -6.126  -3.582  0.00  0.00    -0.271 OA
ATOM     16  N   PRO d   7     -22.923  -7.504  -1.754  0.00  0.00    -0.337 N 
ATOM     17  CD  PRO d   7     -23.710  -8.389  -0.893  0.00  0.00     0.127 C 
ATOM     18  CA  PRO d   7     -22.439  -6.352  -0.904  0.00  0.00     0.179 C 
ATOM     19  CG  PRO d   7     -24.333  -7.454   0.147  0.00  0.00     0.022 C 
ATOM     20  CB  PRO d   7     -23.718  -6.074  -0.100  0.00  0.00     0.037 C 
BRANCH  18  21
ATOM     21  C   PRO d   7     -21.276  -6.669   0.137  0.00  0.00     0.241 C 
ATOM     22  O   PRO d   7     -21.459  -6.488   1.347  0.00  0.00    -0.271 OA
ATOM     23  N   PHE d   8     -20.030  -7.190  -0.169  0.00  0.00    -0.346 N 
ATOM     24  H   PHE d   8     -19.529  -7.210   0.712  0.00  0.00     0.163 HD
BRANCH  23  25
ATOM     25  CA  PHE d   8     -19.126  -7.132  -1.366  0.00  0.00     0.180 C 
BRANCH  25  26
ATOM     26  CB  PHE d   8     -19.026  -8.536  -2.112  0.00  0.00     0.073 C 
BRANCH  26  27
ATOM     27  CG  PHE d   8     -18.156  -8.774  -3.363  0.00  0.00    -0.056 C 
ATOM     28  CD1 PHE d   8     -16.900  -8.178  -3.488  0.00  0.00     0.007 C 
ATOM     29  CE1 PHE d   8     -16.061  -8.451  -4.591  0.00  0.00     0.001 C 
ATOM     30  CZ  PHE d   8     -16.486  -9.271  -5.639  0.00  0.00     0.000 C 
ATOM     31  CE2 PHE d   8     -17.705  -9.901  -5.531  0.00  0.00     0.001 C 
ATOM     32  CD2 PHE d   8     -18.461  -9.713  -4.375  0.00  0.00     0.007 C 
ENDBRANCH  26  27
ENDBRANCH  25  26
BRANCH  25  33
ATOM     33  C   PHE d   8     -19.499  -5.967  -2.285  0.00  0.00     0.241 C 
ATOM     34  O   PHE d   8     -20.060  -6.189  -3.347  0.00  0.00    -0.271 OA
ATOM     35  N   HIS d   9     -19.182  -4.674  -2.023  0.00  0.00    -0.346 N 
ATOM     36  H   HIS d   9     -19.609  -4.132  -2.758  0.00  0.00     0.163 HD
BRANCH  35  37
ATOM     37  CA  HIS d   9     -18.747  -3.939  -0.819  0.00  0.00     0.182 C 
BRANCH  37  38
ATOM     38  CB  HIS d   9     -17.346  -4.101  -0.172  0.00  0.00     0.093 C 
BRANCH  38  39
ATOM     39  CG  HIS d   9     -16.207  -3.694  -1.002  0.00  0.00     0.030 C 
ATOM     40  CD2 HIS d   9     -16.178  -3.142  -2.248  0.00  0.00     0.143 C 
ATOM     41  NE2 HIS d   9     -14.917  -2.739  -2.580  0.00  0.00    -0.254 NA
ATOM     42  CE1 HIS d   9     -14.164  -3.131  -1.583  0.00  0.00     0.207 C 
ATOM     43  ND1 HIS d   9     -14.883  -3.864  -0.683  0.00  0.00    -0.353 N 
ATOM     44  HD1 HIS d   9     -14.497  -4.405   0.079  0.00  0.00     0.166 HD
ENDBRANCH  38  39
ENDBRANCH  37  38
BRANCH  37  45
ATOM     45  C   HIS d   9     -19.364  -2.522  -0.538  0.00  0.00     0.241 C 
ATOM     46  O   HIS d   9     -18.953  -1.533  -1.155  0.00  0.00    -0.271 OA
ATOM     47  N   LEU d  10     -20.294  -2.252   0.430  0.00  0.00    -0.345 N 
ATOM     48  H   LEU d  10     -20.435  -1.245   0.422  0.00  0.00     0.163 HD
BRANCH  47  49
ATOM     49  CA  LEU d  10     -21.581  -2.924   0.718  0.00  0.00     0.182 C 
BRANCH  49  50
ATOM     50  CB  LEU d  10     -21.738  -3.294   2.185  0.00  0.00     0.040 C 
BRANCH  50  51
ATOM     51  CG  LEU d  10     -22.572  -2.330   2.990  0.00  0.00    -0.020 C 
ATOM     52  CD1 LEU d  10     -23.521  -3.144   3.849  0.00  0.00     0.009 C 
ATOM     53  CD2 LEU d  10     -21.661  -1.353   3.713  0.00  0.00     0.009 C 
ENDBRANCH  50  51
ENDBRANCH  49  50
BRANCH  49  54
ATOM     54  C   LEU d  10     -22.742  -2.126   0.075  0.00  0.00     0.163 C 
ATOM     55  OXT LEU d  10     -23.857  -2.578  -0.183  0.00  0.00    -0.648 OA
BRANCH  54  56
ATOM     56  O   LEU d  10     -22.412  -0.844  -0.183  0.00  0.00    -0.775 OA
ATOM     57  H   LEU d  10     -22.510  -0.298   0.621  0.00  0.00     0.167 HD
ENDBRANCH  54  56
ENDBRANCH  49  54
ENDBRANCH  47  49
ENDBRANCH  37  45
ENDBRANCH  35  37
ENDBRANCH  25  33
ENDBRANCH  23  25
ENDBRANCH  18  21
ENDBRANCH   6  14
ENDBRANCH   4   6
ENDBRANCH   1   2
BRANCH   1  58
ATOM     58  N   ILE d   5     -23.061  -7.604  -8.884  0.00  0.00    -0.346 N 
ATOM     59  C   TYR d   4     -22.978  -7.952 -10.220  0.00  0.00     0.241 C 
ATOM     60  O   TYR d   4     -22.425  -8.990 -10.574  0.00  0.00    -0.271 OA
ATOM     61  H   ILE d   5     -23.818  -6.968  -8.651  0.00  0.00     0.163 HD
BRANCH  59  62
ATOM     62  CA  TYR d   4     -23.611  -6.952 -11.259  0.00  0.00     0.180 C 
BRANCH  62  63
ATOM     63  N   TYR d   4     -22.689  -5.793 -11.525  0.00  0.00    -0.346 N 
ATOM     64  C   VAL d   3     -23.210  -4.547 -11.867  0.00  0.00     0.241 C 
ATOM     65  O   VAL d   3     -24.430  -4.422 -11.900  0.00  0.00    -0.271 OA
ATOM     66  H   TYR d   4     -21.819  -6.024 -11.987  0.00  0.00     0.163 HD
BRANCH  64  67
ATOM     67  CA  VAL d   3     -22.207  -3.363 -12.249  0.00  0.00     0.180 C 
BRANCH  67  68
ATOM     68  N   VAL d   3     -21.535  -2.491 -11.205  0.00  0.00    -0.346 N 
ATOM     69  C   ARG d   2     -21.566  -1.225 -10.705  0.00  0.00     0.241 C 
ATOM     70  O   ARG d   2     -20.573  -0.922 -10.027  0.00  0.00    -0.271 OA
ATOM     71  H   VAL d   3     -20.588  -2.807 -10.991  0.00  0.00     0.163 HD
BRANCH  69  72
ATOM     72  CA  ARG d   2     -22.812  -0.334 -10.760  0.00  0.00     0.176 C 
BRANCH  72  73
ATOM     73  N   ARG d   2     -23.776  -0.767  -9.741  0.00  0.00    -0.346 N 
ATOM     74  C   ASP d   1     -24.933  -1.444 -10.038  0.00  0.00     0.252 C 
ATOM     75  O   ASP d   1     -25.400  -1.545 -11.175  0.00  0.00    -0.271 OA
ATOM     76  H   ARG d   2     -23.349  -1.006  -8.850  0.00  0.00     0.163 HD
BRANCH  74  77
ATOM     77  CA  ASP d   1     -25.682  -2.043  -8.816  0.00  0.00     0.318 C 
BRANCH  77  78
ATOM     78  N   ASP d   1     -26.503  -0.956  -8.212  0.00  0.00     0.092 N 
ATOM     79  H1  ASP d   1     -27.385  -0.864  -8.714  0.00  0.00     0.313 HD
ATOM     80  H2  ASP d   1     -26.013  -0.070  -8.402  0.00  0.00     0.313 HD
ENDBRANCH  77  78
BRANCH  77  81
ATOM     81  CB  ASP d   1     -26.578  -3.205  -9.259  0.00  0.00     0.155 C 
BRANCH  81  82
ATOM     82  CG  ASP d   1     -27.734  -3.402  -8.321  0.00  0.00     0.141 C 
ATOM     83  OD2 ASP d   1     -27.730  -3.238  -7.113  0.00  0.00    -0.650 OA
BRANCH  82  84
ATOM     84  OD1 ASP d   1     -28.870  -3.719  -8.971  0.00  0.00    -0.776 OA
ATOM     85  HD1 ASP d   1     -29.042  -4.654  -8.741  0.00  0.00     0.167 HD
ENDBRANCH  82  84
ENDBRANCH  81  82
ENDBRANCH  77  81
ENDBRANCH  74  77
ENDBRANCH  72  73
BRANCH  72  86
ATOM     86  CB  ARG d   2     -22.495   1.158 -10.981  0.00  0.00     0.037 C 
BRANCH  86  87
ATOM     87  CG  ARG d   2     -23.545   2.258 -10.757  0.00  0.00     0.024 C 
BRANCH  87  88
ATOM     88  CD  ARG d   2     -23.419   3.060  -9.467  0.00  0.00     0.152 C 
BRANCH  88  89
ATOM     89  NE  ARG d   2     -23.512   2.173  -8.321  0.00  0.00    -0.268 NA
ATOM     90  CZ  ARG d   2     -24.568   2.011  -7.649  0.00  0.00     0.143 C 
ATOM     91  NH1 ARG d   2     -24.528   1.188  -6.589  0.00  0.00    -0.278 NA
ATOM     92  NH2 ARG d   2     -25.792   2.578  -7.792  0.00  0.00    -0.278 NA
ATOM     93 1HH1 ARG d   2     -23.671   0.616  -6.623  0.00  0.00     0.126 HD
ATOM     94 2HH1 ARG d   2     -25.356   0.668  -6.362  0.00  0.00     0.126 HD
ATOM     95 1HH2 ARG d   2     -25.960   3.027  -8.688  0.00  0.00     0.126 HD
ATOM     96 2HH2 ARG d   2     -26.583   2.000  -7.505  0.00  0.00     0.126 HD
ENDBRANCH  88  89
ENDBRANCH  87  88
ENDBRANCH  86  87
ENDBRANCH  72  86
ENDBRANCH  69  72
ENDBRANCH  67  68
BRANCH  67  97
ATOM     97  CB  VAL d   3     -20.982  -3.915 -13.063  0.00  0.00     0.009 C 
ATOM     98  CG1 VAL d   3     -20.250  -2.779 -13.792  0.00  0.00     0.012 C 
ATOM     99  CG2 VAL d   3     -20.003  -4.806 -12.303  0.00  0.00     0.012 C 
ENDBRANCH  67  97
ENDBRANCH  64  67
ENDBRANCH  62  63
BRANCH  62 100
ATOM    100  CB  TYR d   4     -24.038  -7.654 -12.590  0.00  0.00     0.073 C 
BRANCH 100 101
ATOM    101  CG  TYR d   4     -23.207  -7.406 -13.846  0.00  0.00    -0.056 A 
ATOM    102  CD1 TYR d   4     -23.658  -6.553 -14.868  0.00  0.00     0.010 A 
ATOM    103  CE1 TYR d   4     -22.862  -6.282 -15.992  0.00  0.00     0.037 A 
ATOM    104  CZ  TYR d   4     -21.617  -6.871 -16.121  0.00  0.00     0.065 A 
ATOM    105  CE2 TYR d   4     -21.132  -7.698 -15.123  0.00  0.00     0.037 A 
ATOM    106  CD2 TYR d   4     -21.921  -7.933 -13.990  0.00  0.00     0.010 A 
BRANCH 104 107
ATOM    107  OH  TYR d   4     -20.866  -6.608 -17.222  0.00  0.00    -0.361 OA
ATOM    108  HH  TYR d   4     -21.491  -6.363 -17.927  0.00  0.00     0.217 HD
ENDBRANCH 104 107
ENDBRANCH 100 101
ENDBRANCH  62 100
ENDBRANCH  59  62
ENDBRANCH   1  58
BRANCH   1 109
ATOM    109  CB  ILE d   5     -21.122  -8.542  -7.372  0.00  0.00     0.013 C 
ATOM    110  CG2 ILE d   5     -20.345  -9.720  -7.978  0.00  0.00     0.012 C 
BRANCH 109 111
ATOM    111  CG1 ILE d   5     -20.437  -7.170  -7.629  0.00  0.00     0.002 C 
ATOM    112  CD1 ILE d   5     -18.917  -7.148  -7.538  0.00  0.00     0.005 C 
ENDBRANCH 109 111
ENDBRANCH   1 109
TORSDOF 41
ENDMDL
MODEL 6
REMARK VINA RESULT:      -8.9      2.021      4.845
REMARK WARNING: 32 MAX_TORS EXCEEDED!!!
REMARK  41 active torsions:
REMARK  status: ('A' for Active; 'I' for Inactive)
REMARK    1  A    between atoms: CB_3  and  CG1_2 
REMARK    2  A    between atoms: CA_4  and  CB_3 
REMARK    3  A    between atoms: CA_4  and  C_6 
REMARK    4  A    between atoms: CA_4  and  N_7 
REMARK       I    between atoms: C_6  and  N_8 
REMARK       I    between atoms: N_7  and  C_10 
REMARK    5  A    between atoms: N_8  and  CA_11 
REMARK    6  A    between atoms: CA_12  and  C_10 
REMARK    7  A    between atoms: CA_11  and  CB_15 
REMARK    8  A    between atoms: CA_11  and  C_14 
REMARK    9  A    between atoms: CA_12  and  N_17 
REMARK   10  A    between atoms: CA_12  and  CB_16 
REMARK       I    between atoms: C_14  and  N_18 
REMARK   11  A    between atoms: CB_15  and  CG_20 
REMARK   12  A    between atoms: CB_16  and  CG_21 
REMARK       I    between atoms: N_17  and  C_22 
REMARK   13  A    between atoms: C_22  and  CA_29 
REMARK   14  A    between atoms: CA_24  and  C_33 
REMARK   15  A    between atoms: CA_29  and  N_39 
REMARK   16  A    between atoms: CA_29  and  CB_38 
REMARK       I    between atoms: C_33  and  N_40 
REMARK       I    between atoms: N_39  and  C_45 
REMARK   17  A    between atoms: N_40  and  CA_46 
REMARK   18  A    between atoms: CZ_42  and  OH_47 
REMARK   19  A    between atoms: CA_48  and  C_45 
REMARK   20  A    between atoms: CA_46  and  CB_51 
REMARK   21  A    between atoms: CA_46  and  C_50 
REMARK   22  A    between atoms: CA_48  and  N_52 
REMARK   23  A    between atoms: CA_48  and  CB_53 
REMARK       I    between atoms: C_50  and  N_54 
REMARK   24  A    between atoms: CB_51  and  CG_56 
REMARK       I    between atoms: N_52  and  C_57 
REMARK   25  A    between atoms: CB_53  and  CG_58 
REMARK   26  A    between atoms: N_54  and  CA_59 
REMARK   27  A    between atoms: C_57  and  CA_62 
REMARK   28  A    between atoms: CG_58  and  CD_64 
REMARK   29  A    between atoms: CA_59  and  CB_66 
REMARK   30  A    between atoms: CA_59  and  C_65 
REMARK   31  A    between atoms: CA_62  and  N_70 
REMARK   32  A    between atoms: CA_62  and  CB_69 
REMARK   33  A    between atoms: CD_64  and  NE_71 
REMARK       I    between atoms: C_65  and  N_72 
REMARK   34  A    between atoms: CB_66  and  CG_74 
REMARK   35  A    between atoms: CB_69  and  CG_76 
REMARK   36  A    between atoms: N_72  and  CA_78 
REMARK   37  A    between atoms: CG_76  and  OD1_82 
REMARK       I    between atoms: CZ_77  and  NH1_83 
REMARK       I    between atoms: CZ_77  and  NH2_84 
REMARK   38  A    between atoms: CA_78  and  CB_86 
REMARK   39  A    between atoms: CA_78  and  C_85 
REMARK   40  A    between atoms: C_85  and  O_90 
REMARK   41  A    between atoms: CB_86  and  CG_91 
ROOT
ATOM      1  CA  ILE d   5     -22.942  -8.204 -13.213  0.00  0.00     0.180 C 
ENDROOT
BRANCH   1   2
ATOM      2  C   ILE d   5     -22.283  -9.525 -13.736  0.00  0.00     0.241 C 
ATOM      3  O   ILE d   5     -21.078  -9.730 -13.607  0.00  0.00    -0.271 OA
ATOM      4  N   HIS d   6     -23.100 -10.369 -14.448  0.00  0.00    -0.346 N 
ATOM      5  H   HIS d   6     -24.087 -10.188 -14.448  0.00  0.00     0.163 HD
BRANCH   4   6
ATOM      6  CA  HIS d   6     -22.844 -11.792 -14.720  0.00  0.00     0.182 C 
BRANCH   6   7
ATOM      7  CB  HIS d   6     -23.772 -12.510 -13.658  0.00  0.00     0.087 C 
BRANCH   7   8
ATOM      8  CG  HIS d   6     -24.986 -11.878 -13.074  0.00  0.00     0.010 C 
ATOM      9  CD2 HIS d   6     -26.306 -11.805 -13.490  0.00  0.00     0.136 C 
ATOM     10  NE2 HIS d   6     -27.076 -11.250 -12.500  0.00  0.00    -0.260 NA
ATOM     11  CE1 HIS d   6     -26.238 -11.006 -11.523  0.00  0.00     0.180 C 
ATOM     12  ND1 HIS d   6     -24.969 -10.944 -12.046  0.00  0.00    -0.256 NA
ATOM     13  HD1 HIS d   6     -24.632 -10.019 -12.257  0.00  0.00     0.134 HD
ENDBRANCH   7   8
ENDBRANCH   6   7
BRANCH   6  14
ATOM     14  C   HIS d   6     -23.294 -11.985 -16.248  0.00  0.00     0.243 C 
ATOM     15  O   HIS d   6     -23.947 -11.084 -16.793  0.00  0.00    -0.271 OA
ATOM     16  N   PRO d   7     -22.953 -13.136 -17.008  0.00  0.00    -0.337 N 
ATOM     17  CD  PRO d   7     -21.690 -13.860 -16.853  0.00  0.00     0.127 C 
ATOM     18  CA  PRO d   7     -23.321 -13.170 -18.474  0.00  0.00     0.179 C 
ATOM     19  CG  PRO d   7     -20.954 -13.631 -18.176  0.00  0.00     0.022 C 
ATOM     20  CB  PRO d   7     -21.940 -12.899 -19.090  0.00  0.00     0.037 C 
BRANCH  18  21
ATOM     21  C   PRO d   7     -23.840 -14.561 -19.051  0.00  0.00     0.241 C 
ATOM     22  O   PRO d   7     -23.427 -14.974 -20.141  0.00  0.00    -0.271 OA
ATOM     23  N   PHE d   8     -24.717 -15.427 -18.418  0.00  0.00    -0.346 N 
ATOM     24  H   PHE d   8     -24.871 -16.176 -19.084  0.00  0.00     0.163 HD
BRANCH  23  25
ATOM     25  CA  PHE d   8     -25.839 -15.262 -17.436  0.00  0.00     0.180 C 
BRANCH  25  26
ATOM     26  CB  PHE d   8     -27.102 -14.539 -18.083  0.00  0.00     0.073 C 
BRANCH  26  27
ATOM     27  CG  PHE d   8     -27.282 -13.007 -18.113  0.00  0.00    -0.056 C 
ATOM     28  CD1 PHE d   8     -27.321 -12.313 -19.324  0.00  0.00     0.007 C 
ATOM     29  CE1 PHE d   8     -27.564 -10.923 -19.368  0.00  0.00     0.001 C 
ATOM     30  CZ  PHE d   8     -27.702 -10.173 -18.198  0.00  0.00     0.000 C 
ATOM     31  CE2 PHE d   8     -27.702 -10.832 -16.989  0.00  0.00     0.001 C 
ATOM     32  CD2 PHE d   8     -27.585 -12.221 -16.979  0.00  0.00     0.007 C 
ENDBRANCH  26  27
ENDBRANCH  25  26
BRANCH  25  33
ATOM     33  C   PHE d   8     -26.170 -16.588 -16.747  0.00  0.00     0.241 C 
ATOM     34  O   PHE d   8     -26.292 -16.624 -15.533  0.00  0.00    -0.271 OA
ATOM     35  N   HIS d   9     -26.275 -17.770 -17.406  0.00  0.00    -0.346 N 
ATOM     36  H   HIS d   9     -26.563 -18.444 -16.714  0.00  0.00     0.163 HD
BRANCH  35  37
ATOM     37  CA  HIS d   9     -26.437 -18.155 -18.821  0.00  0.00     0.182 C 
BRANCH  37  38
ATOM     38  CB  HIS d   9     -27.474 -17.506 -19.775  0.00  0.00     0.093 C 
BRANCH  38  39
ATOM     39  CG  HIS d   9     -27.934 -18.346 -20.887  0.00  0.00     0.030 C 
ATOM     40  CD2 HIS d   9     -27.733 -18.216 -22.229  0.00  0.00     0.143 C 
ATOM     41  NE2 HIS d   9     -28.172 -19.320 -22.902  0.00  0.00    -0.254 NA
ATOM     42  CE1 HIS d   9     -28.725 -20.076 -21.986  0.00  0.00     0.207 C 
ATOM     43  ND1 HIS d   9     -28.751 -19.443 -20.776  0.00  0.00    -0.353 N 
ATOM     44  HD1 HIS d   9     -29.263 -19.750 -19.961  0.00  0.00     0.166 HD
ENDBRANCH  38  39
ENDBRANCH  37  38
BRANCH  37  45
ATOM     45  C   HIS d   9     -25.190 -18.711 -19.598  0.00  0.00     0.241 C 
ATOM     46  O   HIS d   9     -24.386 -17.930 -20.118  0.00  0.00    -0.271 OA
ATOM     47  N   LEU d  10     -24.947 -20.036 -19.839  0.00  0.00    -0.345 N 
ATOM     48  H   LEU d  10     -24.117 -20.075 -20.428  0.00  0.00     0.163 HD
BRANCH  47  49
ATOM     49  CA  LEU d  10     -24.933 -21.181 -18.901  0.00  0.00     0.182 C 
BRANCH  49  50
ATOM     50  CB  LEU d  10     -23.668 -21.238 -18.058  0.00  0.00     0.040 C 
BRANCH  50  51
ATOM     51  CG  LEU d  10     -22.727 -22.362 -18.414  0.00  0.00    -0.020 C 
ATOM     52  CD1 LEU d  10     -22.135 -22.896 -17.124  0.00  0.00     0.009 C 
ATOM     53  CD2 LEU d  10     -23.446 -23.361 -19.303  0.00  0.00     0.009 C 
ENDBRANCH  50  51
ENDBRANCH  49  50
BRANCH  49  54
ATOM     54  C   LEU d  10     -26.280 -21.247 -18.137  0.00  0.00     0.163 C 
ATOM     55  OXT LEU d  10     -26.422 -21.052 -16.931  0.00  0.00    -0.648 OA
BRANCH  54  56
ATOM     56  O   LEU d  10     -27.319 -21.545 -18.943  0.00  0.00    -0.775 OA
ATOM     57  H   LEU d  10     -27.796 -22.329 -18.609  0.00  0.00     0.167 HD
ENDBRANCH  54  56
ENDBRANCH  49  54
ENDBRANCH  47  49
ENDBRANCH  37  45
ENDBRANCH  35  37
ENDBRANCH  25  33
ENDBRANCH  23  25
ENDBRANCH  18  21
ENDBRANCH   6  14
ENDBRANCH   4   6
ENDBRANCH   1   2
BRANCH   1  58
ATOM     58  N   ILE d   5     -21.880  -7.485 -12.478  0.00  0.00    -0.346 N 
ATOM     59  C   TYR d   4     -21.644  -7.622 -11.122  0.00  0.00     0.241 C 
ATOM     60  O   TYR d   4     -22.404  -8.270 -10.407  0.00  0.00    -0.271 OA
ATOM     61  H   ILE d   5     -21.059  -7.273 -13.038  0.00  0.00     0.163 HD
BRANCH  59  62
ATOM     62  CA  TYR d   4     -20.371  -6.901 -10.542  0.00  0.00     0.180 C 
BRANCH  62  63
ATOM     63  N   TYR d   4     -20.255  -5.497 -11.073  0.00  0.00    -0.346 N 
ATOM     64  C   VAL d   3     -21.354  -4.641 -11.035  0.00  0.00     0.241 C 
ATOM     65  O   VAL d   3     -22.388  -5.053 -10.520  0.00  0.00    -0.271 OA
ATOM     66  H   TYR d   4     -19.666  -5.386 -11.887  0.00  0.00     0.163 HD
BRANCH  64  67
ATOM     67  CA  VAL d   3     -21.235  -3.194 -11.703  0.00  0.00     0.180 C 
BRANCH  67  68
ATOM     68  N   VAL d   3     -21.674  -1.927 -10.994  0.00  0.00    -0.346 N 
ATOM     69  C   ARG d   2     -22.653  -0.981 -11.029  0.00  0.00     0.241 C 
ATOM     70  O   ARG d   2     -22.386   0.049 -10.392  0.00  0.00    -0.271 OA
ATOM     71  H   VAL d   3     -20.894  -1.443 -10.548  0.00  0.00     0.163 HD
BRANCH  69  72
ATOM     72  CA  ARG d   2     -24.054  -1.246 -11.589  0.00  0.00     0.176 C 
BRANCH  72  73
ATOM     73  N   ARG d   2     -25.052  -1.094 -10.524  0.00  0.00    -0.346 N 
ATOM     74  C   ASP d   1     -25.790  -2.140 -10.027  0.00  0.00     0.252 C 
ATOM     75  O   ASP d   1     -25.873  -3.244 -10.571  0.00  0.00    -0.271 OA
ATOM     76  H   ARG d   2     -24.825  -0.365  -9.853  0.00  0.00     0.163 HD
BRANCH  74  77
ATOM     77  CA  ASP d   1     -26.592  -1.829  -8.734  0.00  0.00     0.318 C 
BRANCH  77  78
ATOM     78  N   ASP d   1     -27.218  -3.101  -8.274  0.00  0.00     0.092 N 
ATOM     79  H1  ASP d   1     -28.117  -3.235  -8.735  0.00  0.00     0.313 HD
ATOM     80  H2  ASP d   1     -27.461  -2.973  -7.281  0.00  0.00     0.313 HD
ENDBRANCH  77  78
BRANCH  77  81
ATOM     81  CB  ASP d   1     -25.661  -1.272  -7.652  0.00  0.00     0.155 C 
BRANCH  81  82
ATOM     82  CG  ASP d   1     -25.677   0.230  -7.627  0.00  0.00     0.141 C 
ATOM     83  OD2 ASP d   1     -26.462   0.942  -7.025  0.00  0.00    -0.650 OA
BRANCH  82  84
ATOM     84  OD1 ASP d   1     -24.641   0.762  -8.303  0.00  0.00    -0.776 OA
ATOM     85  HD1 ASP d   1     -24.849   1.715  -8.377  0.00  0.00     0.167 HD
ENDBRANCH  82  84
ENDBRANCH  81  82
ENDBRANCH  77  81
ENDBRANCH  74  77
ENDBRANCH  72  73
BRANCH  72  86
ATOM     86  CB  ARG d   2     -24.281  -0.648 -12.992  0.00  0.00     0.037 C 
BRANCH  86  87
ATOM     87  CG  ARG d   2     -24.984   0.703 -13.199  0.00  0.00     0.024 C 
BRANCH  87  88
ATOM     88  CD  ARG d   2     -25.817   0.844 -14.468  0.00  0.00     0.152 C 
BRANCH  88  89
ATOM     89  NE  ARG d   2     -27.219   0.603 -14.168  0.00  0.00    -0.268 NA
ATOM     90  CZ  ARG d   2     -28.151   1.370 -14.535  0.00  0.00     0.143 C 
ATOM     91  NH1 ARG d   2     -29.408   1.064 -14.174  0.00  0.00    -0.278 NA
ATOM     92  NH2 ARG d   2     -28.105   2.530 -15.236  0.00  0.00    -0.278 NA
ATOM     93 1HH1 ARG d   2     -29.445   0.092 -13.834  0.00  0.00     0.126 HD
ATOM     94 2HH1 ARG d   2     -30.153   1.307 -14.801  0.00  0.00     0.126 HD
ATOM     95 1HH2 ARG d   2     -27.234   2.705 -15.729  0.00  0.00     0.126 HD
ATOM     96 2HH2 ARG d   2     -28.917   2.725 -15.823  0.00  0.00     0.126 HD
ENDBRANCH  88  89
ENDBRANCH  87  88
ENDBRANCH  86  87
ENDBRANCH  72  86
ENDBRANCH  69  72
ENDBRANCH  67  68
BRANCH  67  97
ATOM     97  CB  VAL d   3     -19.740  -2.872 -12.066  0.00  0.00     0.009 C 
ATOM     98  CG1 VAL d   3     -19.499  -3.015 -13.577  0.00  0.00     0.012 C 
ATOM     99  CG2 VAL d   3     -19.177  -1.556 -11.538  0.00  0.00     0.012 C 
ENDBRANCH  67  97
ENDBRANCH  64  67
ENDBRANCH  62  63
BRANCH  62 100
ATOM    100  CB  TYR d   4     -20.323  -6.922  -8.979  0.00  0.00     0.073 C 
BRANCH 100 101
ATOM    101  CG  TYR d   4     -19.105  -7.531  -8.293  0.00  0.00    -0.056 A 
ATOM    102  CD1 TYR d   4     -18.956  -7.500  -6.895  0.00  0.00     0.010 A 
ATOM    103  CE1 TYR d   4     -17.863  -8.116  -6.267  0.00  0.00     0.037 A 
ATOM    104  CZ  TYR d   4     -16.895  -8.754  -7.021  0.00  0.00     0.065 A 
ATOM    105  CE2 TYR d   4     -17.021  -8.824  -8.398  0.00  0.00     0.037 A 
ATOM    106  CD2 TYR d   4     -18.135  -8.236  -9.011  0.00  0.00     0.010 A 
BRANCH 104 107
ATOM    107  OH  TYR d   4     -15.836  -9.333  -6.398  0.00  0.00    -0.361 OA
ATOM    108  HH  TYR d   4     -16.208  -9.999  -5.792  0.00  0.00     0.217 HD
ENDBRANCH 104 107
ENDBRANCH 100 101
ENDBRANCH  62 100
ENDBRANCH  59  62
ENDBRANCH   1  58
BRANCH   1 109
ATOM    109  CB  ILE d   5     -23.795  -7.414 -14.281  0.00  0.00     0.013 C 
ATOM    110  CG2 ILE d   5     -24.776  -6.391 -13.689  0.00  0.00     0.012 C 
BRANCH 109 111
ATOM    111  CG1 ILE d   5     -22.875  -6.805 -15.376  0.00  0.00     0.002 C 
ATOM    112  CD1 ILE d   5     -22.910  -7.484 -16.740  0.00  0.00     0.005 C 
ENDBRANCH 109 111
ENDBRANCH   1 109
TORSDOF 41
ENDMDL
MODEL 7
REMARK VINA RESULT:      -8.9      2.270      6.020
REMARK WARNING: 32 MAX_TORS EXCEEDED!!!
REMARK  41 active torsions:
REMARK  status: ('A' for Active; 'I' for Inactive)
REMARK    1  A    between atoms: CB_3  and  CG1_2 
REMARK    2  A    between atoms: CA_4  and  CB_3 
REMARK    3  A    between atoms: CA_4  and  C_6 
REMARK    4  A    between atoms: CA_4  and  N_7 
REMARK       I    between atoms: C_6  and  N_8 
REMARK       I    between atoms: N_7  and  C_10 
REMARK    5  A    between atoms: N_8  and  CA_11 
REMARK    6  A    between atoms: CA_12  and  C_10 
REMARK    7  A    between atoms: CA_11  and  CB_15 
REMARK    8  A    between atoms: CA_11  and  C_14 
REMARK    9  A    between atoms: CA_12  and  N_17 
REMARK   10  A    between atoms: CA_12  and  CB_16 
REMARK       I    between atoms: C_14  and  N_18 
REMARK   11  A    between atoms: CB_15  and  CG_20 
REMARK   12  A    between atoms: CB_16  and  CG_21 
REMARK       I    between atoms: N_17  and  C_22 
REMARK   13  A    between atoms: C_22  and  CA_29 
REMARK   14  A    between atoms: CA_24  and  C_33 
REMARK   15  A    between atoms: CA_29  and  N_39 
REMARK   16  A    between atoms: CA_29  and  CB_38 
REMARK       I    between atoms: C_33  and  N_40 
REMARK       I    between atoms: N_39  and  C_45 
REMARK   17  A    between atoms: N_40  and  CA_46 
REMARK   18  A    between atoms: CZ_42  and  OH_47 
REMARK   19  A    between atoms: CA_48  and  C_45 
REMARK   20  A    between atoms: CA_46  and  CB_51 
REMARK   21  A    between atoms: CA_46  and  C_50 
REMARK   22  A    between atoms: CA_48  and  N_52 
REMARK   23  A    between atoms: CA_48  and  CB_53 
REMARK       I    between atoms: C_50  and  N_54 
REMARK   24  A    between atoms: CB_51  and  CG_56 
REMARK       I    between atoms: N_52  and  C_57 
REMARK   25  A    between atoms: CB_53  and  CG_58 
REMARK   26  A    between atoms: N_54  and  CA_59 
REMARK   27  A    between atoms: C_57  and  CA_62 
REMARK   28  A    between atoms: CG_58  and  CD_64 
REMARK   29  A    between atoms: CA_59  and  CB_66 
REMARK   30  A    between atoms: CA_59  and  C_65 
REMARK   31  A    between atoms: CA_62  and  N_70 
REMARK   32  A    between atoms: CA_62  and  CB_69 
REMARK   33  A    between atoms: CD_64  and  NE_71 
REMARK       I    between atoms: C_65  and  N_72 
REMARK   34  A    between atoms: CB_66  and  CG_74 
REMARK   35  A    between atoms: CB_69  and  CG_76 
REMARK   36  A    between atoms: N_72  and  CA_78 
REMARK   37  A    between atoms: CG_76  and  OD1_82 
REMARK       I    between atoms: CZ_77  and  NH1_83 
REMARK       I    between atoms: CZ_77  and  NH2_84 
REMARK   38  A    between atoms: CA_78  and  CB_86 
REMARK   39  A    between atoms: CA_78  and  C_85 
REMARK   40  A    between atoms: C_85  and  O_90 
REMARK   41  A    between atoms: CB_86  and  CG_91 
ROOT
ATOM      1  CA  ILE d   5     -18.640  -9.868 -10.800  0.00  0.00     0.180 C 
ENDROOT
BRANCH   1   2
ATOM      2  C   ILE d   5     -18.457 -11.266 -11.480  0.00  0.00     0.241 C 
ATOM      3  O   ILE d   5     -17.471 -11.963 -11.250  0.00  0.00    -0.271 OA
ATOM      4  N   HIS d   6     -19.388 -11.603 -12.432  0.00  0.00    -0.346 N 
ATOM      5  H   HIS d   6     -20.210 -11.034 -12.517  0.00  0.00     0.163 HD
BRANCH   4   6
ATOM      6  CA  HIS d   6     -19.655 -12.959 -12.936  0.00  0.00     0.182 C 
BRANCH   6   7
ATOM      7  CB  HIS d   6     -20.362 -13.645 -11.698  0.00  0.00     0.087 C 
BRANCH   7   8
ATOM      8  CG  HIS d   6     -20.149 -15.068 -11.320  0.00  0.00     0.010 C 
ATOM      9  CD2 HIS d   6     -21.015 -16.097 -10.986  0.00  0.00     0.136 C 
ATOM     10  NE2 HIS d   6     -20.320 -17.276 -10.886  0.00  0.00    -0.260 NA
ATOM     11  CE1 HIS d   6     -19.080 -16.956 -11.158  0.00  0.00     0.180 C 
ATOM     12  ND1 HIS d   6     -18.923 -15.608 -10.948  0.00  0.00    -0.256 NA
ATOM     13  HD1 HIS d   6     -18.550 -15.349 -10.049  0.00  0.00     0.134 HD
ENDBRANCH   7   8
ENDBRANCH   6   7
BRANCH   6  14
ATOM     14  C   HIS d   6     -20.604 -12.723 -14.209  0.00  0.00     0.243 C 
ATOM     15  O   HIS d   6     -20.539 -11.639 -14.805  0.00  0.00    -0.271 OA
ATOM     16  N   PRO d   7     -21.499 -13.715 -14.692  0.00  0.00    -0.337 N 
ATOM     17  CD  PRO d   7     -21.211 -15.151 -14.651  0.00  0.00     0.127 C 
ATOM     18  CA  PRO d   7     -22.263 -13.440 -15.968  0.00  0.00     0.179 C 
ATOM     19  CG  PRO d   7     -21.076 -15.555 -16.121  0.00  0.00     0.022 C 
ATOM     20  CB  PRO d   7     -21.461 -14.321 -16.939  0.00  0.00     0.037 C 
BRANCH  18  21
ATOM     21  C   PRO d   7     -23.778 -13.929 -16.015  0.00  0.00     0.241 C 
ATOM     22  O   PRO d   7     -24.209 -14.703 -15.152  0.00  0.00    -0.271 OA
ATOM     23  N   PHE d   8     -24.731 -13.531 -16.938  0.00  0.00    -0.346 N 
ATOM     24  H   PHE d   8     -25.558 -14.073 -16.711  0.00  0.00     0.163 HD
BRANCH  23  25
ATOM     25  CA  PHE d   8     -24.692 -13.077 -18.368  0.00  0.00     0.180 C 
BRANCH  25  26
ATOM     26  CB  PHE d   8     -23.407 -12.188 -18.681  0.00  0.00     0.073 C 
BRANCH  26  27
ATOM     27  CG  PHE d   8     -23.336 -10.671 -18.410  0.00  0.00    -0.056 C 
ATOM     28  CD1 PHE d   8     -22.121  -9.987 -18.480  0.00  0.00     0.007 C 
ATOM     29  CE1 PHE d   8     -22.055  -8.586 -18.313  0.00  0.00     0.001 C 
ATOM     30  CZ  PHE d   8     -23.192  -7.839 -17.996  0.00  0.00     0.000 C 
ATOM     31  CE2 PHE d   8     -24.410  -8.479 -17.953  0.00  0.00     0.001 C 
ATOM     32  CD2 PHE d   8     -24.467  -9.841 -18.245  0.00  0.00     0.007 C 
ENDBRANCH  26  27
ENDBRANCH  25  26
BRANCH  25  33
ATOM     33  C   PHE d   8     -24.880 -14.253 -19.328  0.00  0.00     0.241 C 
ATOM     34  O   PHE d   8     -23.993 -14.537 -20.118  0.00  0.00    -0.271 OA
ATOM     35  N   HIS d   9     -26.023 -14.981 -19.408  0.00  0.00    -0.346 N 
ATOM     36  H   HIS d   9     -25.832 -15.719 -20.068  0.00  0.00     0.163 HD
BRANCH  35  37
ATOM     37  CA  HIS d   9     -27.204 -15.151 -18.540  0.00  0.00     0.182 C 
BRANCH  37  38
ATOM     38  CB  HIS d   9     -28.408 -14.172 -18.525  0.00  0.00     0.093 C 
BRANCH  38  39
ATOM     39  CG  HIS d   9     -28.111 -12.798 -18.102  0.00  0.00     0.030 C 
ATOM     40  CD2 HIS d   9     -27.911 -11.673 -18.844  0.00  0.00     0.143 C 
ATOM     41  NE2 HIS d   9     -27.851 -10.564 -18.051  0.00  0.00    -0.254 NA
ATOM     42  CE1 HIS d   9     -27.916 -11.021 -16.825  0.00  0.00     0.207 C 
ATOM     43  ND1 HIS d   9     -27.904 -12.387 -16.809  0.00  0.00    -0.353 N 
ATOM     44  HD1 HIS d   9     -27.786 -12.966 -15.989  0.00  0.00     0.166 HD
ENDBRANCH  38  39
ENDBRANCH  37  38
BRANCH  37  45
ATOM     45  C   HIS d   9     -27.620 -16.603 -18.111  0.00  0.00     0.241 C 
ATOM     46  O   HIS d   9     -28.419 -16.770 -17.182  0.00  0.00    -0.271 OA
ATOM     47  N   LEU d  10     -27.092 -17.754 -18.632  0.00  0.00    -0.345 N 
ATOM     48  H   LEU d  10     -27.497 -18.523 -18.102  0.00  0.00     0.163 HD
BRANCH  47  49
ATOM     49  CA  LEU d  10     -26.932 -18.165 -20.045  0.00  0.00     0.182 C 
BRANCH  49  50
ATOM     50  CB  LEU d  10     -28.184 -17.924 -20.875  0.00  0.00     0.040 C 
BRANCH  50  51
ATOM     51  CG  LEU d  10     -28.590 -19.083 -21.749  0.00  0.00    -0.020 C 
ATOM     52  CD1 LEU d  10     -28.207 -18.743 -23.177  0.00  0.00     0.009 C 
ATOM     53  CD2 LEU d  10     -28.024 -20.371 -21.177  0.00  0.00     0.009 C 
ENDBRANCH  50  51
ENDBRANCH  49  50
BRANCH  49  54
ATOM     54  C   LEU d  10     -25.605 -17.596 -20.608  0.00  0.00     0.163 C 
ATOM     55  OXT LEU d  10     -24.482 -17.864 -20.184  0.00  0.00    -0.648 OA
BRANCH  54  56
ATOM     56  O   LEU d  10     -25.799 -16.754 -21.643  0.00  0.00    -0.775 OA
ATOM     57  H   LEU d  10     -25.963 -17.256 -22.465  0.00  0.00     0.167 HD
ENDBRANCH  54  56
ENDBRANCH  49  54
ENDBRANCH  47  49
ENDBRANCH  37  45
ENDBRANCH  35  37
ENDBRANCH  25  33
ENDBRANCH  23  25
ENDBRANCH  18  21
ENDBRANCH   6  14
ENDBRANCH   4   6
ENDBRANCH   1   2
BRANCH   1  58
ATOM     58  N   ILE d   5     -19.957  -9.367 -11.250  0.00  0.00    -0.346 N 
ATOM     59  C   TYR d   4     -20.216  -8.048 -11.576  0.00  0.00     0.241 C 
ATOM     60  O   TYR d   4     -19.380  -7.169 -11.384  0.00  0.00    -0.271 OA
ATOM     61  H   ILE d   5     -20.509 -10.053 -11.757  0.00  0.00     0.163 HD
BRANCH  59  62
ATOM     62  CA  TYR d   4     -21.631  -7.729 -12.187  0.00  0.00     0.180 C 
BRANCH  62  63
ATOM     63  N   TYR d   4     -21.800  -6.252 -12.419  0.00  0.00    -0.346 N 
ATOM     64  C   VAL d   3     -22.383  -5.450 -11.440  0.00  0.00     0.241 C 
ATOM     65  O   VAL d   3     -22.708  -5.979 -10.381  0.00  0.00    -0.271 OA
ATOM     66  H   TYR d   4     -22.022  -5.981 -13.368  0.00  0.00     0.163 HD
BRANCH  64  67
ATOM     67  CA  VAL d   3     -22.648  -3.906 -11.755  0.00  0.00     0.180 C 
BRANCH  67  68
ATOM     68  N   VAL d   3     -21.905  -2.788 -11.048  0.00  0.00    -0.346 N 
ATOM     69  C   ARG d   2     -21.935  -1.436 -10.886  0.00  0.00     0.241 C 
ATOM     70  O   ARG d   2     -20.889  -0.958 -10.421  0.00  0.00    -0.271 OA
ATOM     71  H   VAL d   3     -20.930  -3.027 -10.867  0.00  0.00     0.163 HD
BRANCH  69  72
ATOM     72  CA  ARG d   2     -23.214  -0.604 -11.026  0.00  0.00     0.176 C 
BRANCH  72  73
ATOM     73  N   ARG d   2     -23.365   0.274  -9.859  0.00  0.00    -0.346 N 
ATOM     74  C   ASP d   1     -22.925   1.574  -9.832  0.00  0.00     0.252 C 
ATOM     75  O   ASP d   1     -22.158   2.059 -10.668  0.00  0.00    -0.271 OA
ATOM     76  H   ARG d   2     -24.202   0.086  -9.313  0.00  0.00     0.163 HD
BRANCH  74  77
ATOM     77  CA  ASP d   1     -23.410   2.412  -8.619  0.00  0.00     0.318 C 
BRANCH  77  78
ATOM     78  N   ASP d   1     -23.047   3.834  -8.877  0.00  0.00     0.092 N 
ATOM     79  H1  ASP d   1     -23.645   4.453  -8.332  0.00  0.00     0.313 HD
ATOM     80  H2  ASP d   1     -23.302   4.036  -9.855  0.00  0.00     0.313 HD
ENDBRANCH  77  78
BRANCH  77  81
ATOM     81  CB  ASP d   1     -24.927   2.273  -8.448  0.00  0.00     0.155 C 
BRANCH  81  82
ATOM     82  CG  ASP d   1     -25.283   1.671  -7.119  0.00  0.00     0.141 C 
ATOM     83  OD2 ASP d   1     -24.711   1.855  -6.058  0.00  0.00    -0.650 OA
BRANCH  82  84
ATOM     84  OD1 ASP d   1     -26.403   0.925  -7.180  0.00  0.00    -0.776 OA
ATOM     85  HD1 ASP d   1     -26.932   1.320  -7.901  0.00  0.00     0.167 HD
ENDBRANCH  82  84
ENDBRANCH  81  82
ENDBRANCH  77  81
ENDBRANCH  74  77
ENDBRANCH  72  73
BRANCH  72  86
ATOM     86  CB  ARG d   2     -23.459  -0.085 -12.457  0.00  0.00     0.037 C 
BRANCH  86  87
ATOM     87  CG  ARG d   2     -24.798   0.540 -12.880  0.00  0.00     0.024 C 
BRANCH  87  88
ATOM     88  CD  ARG d   2     -25.199   0.354 -14.339  0.00  0.00     0.152 C 
BRANCH  88  89
ATOM     89  NE  ARG d   2     -26.204   1.338 -14.706  0.00  0.00    -0.268 NA
ATOM     90  CZ  ARG d   2     -27.445   1.133 -14.612  0.00  0.00     0.143 C 
ATOM     91  NH1 ARG d   2     -28.283   2.104 -15.010  0.00  0.00    -0.278 NA
ATOM     92  NH2 ARG d   2     -28.122   0.035 -14.192  0.00  0.00    -0.278 NA
ATOM     93 1HH1 ARG d   2     -27.764   2.988 -15.122  0.00  0.00     0.126 HD
ATOM     94 2HH1 ARG d   2     -29.157   2.202 -14.527  0.00  0.00     0.126 HD
ATOM     95 1HH2 ARG d   2     -27.571  -0.642 -13.673  0.00  0.00     0.126 HD
ATOM     96 2HH2 ARG d   2     -29.021   0.214 -13.744  0.00  0.00     0.126 HD
ENDBRANCH  88  89
ENDBRANCH  87  88
ENDBRANCH  86  87
ENDBRANCH  72  86
ENDBRANCH  69  72
ENDBRANCH  67  68
BRANCH  67  97
ATOM     97  CB  VAL d   3     -22.363  -3.592 -13.268  0.00  0.00     0.009 C 
ATOM     98  CG1 VAL d   3     -23.613  -3.026 -13.956  0.00  0.00     0.012 C 
ATOM     99  CG2 VAL d   3     -21.132  -2.741 -13.568  0.00  0.00     0.012 C 
ENDBRANCH  67  97
ENDBRANCH  64  67
ENDBRANCH  62  63
BRANCH  62 100
ATOM    100  CB  TYR d   4     -21.926  -8.545 -13.489  0.00  0.00     0.073 C 
BRANCH 100 101
ATOM    101  CG  TYR d   4     -22.996  -9.631 -13.445  0.00  0.00    -0.056 A 
ATOM    102  CD1 TYR d   4     -23.898  -9.818 -14.507  0.00  0.00     0.010 A 
ATOM    103  CE1 TYR d   4     -24.840 -10.857 -14.486  0.00  0.00     0.037 A 
ATOM    104  CZ  TYR d   4     -24.909 -11.712 -13.401  0.00  0.00     0.065 A 
ATOM    105  CE2 TYR d   4     -24.021 -11.572 -12.348  0.00  0.00     0.037 A 
ATOM    106  CD2 TYR d   4     -23.063 -10.552 -12.396  0.00  0.00     0.010 A 
BRANCH 104 107
ATOM    107  OH  TYR d   4     -25.836 -12.705 -13.391  0.00  0.00    -0.361 OA
ATOM    108  HH  TYR d   4     -25.340 -13.542 -13.410  0.00  0.00     0.217 HD
ENDBRANCH 104 107
ENDBRANCH 100 101
ENDBRANCH  62 100
ENDBRANCH  59  62
ENDBRANCH   1  58
BRANCH   1 109
ATOM    109  CB  ILE d   5     -18.296  -9.822  -9.260  0.00  0.00     0.013 C 
ATOM    110  CG2 ILE d   5     -17.300  -8.726  -8.856  0.00  0.00     0.012 C 
BRANCH 109 111
ATOM    111  CG1 ILE d   5     -19.597  -9.801  -8.408  0.00  0.00     0.002 C 
ATOM    112  CD1 ILE d   5     -19.425  -9.526  -6.920  0.00  0.00     0.005 C 
ENDBRANCH 109 111
ENDBRANCH   1 109
TORSDOF 41
ENDMDL
MODEL 8
REMARK VINA RESULT:      -8.9      2.842     15.763
REMARK WARNING: 32 MAX_TORS EXCEEDED!!!
REMARK  41 active torsions:
REMARK  status: ('A' for Active; 'I' for Inactive)
REMARK    1  A    between atoms: CB_3  and  CG1_2 
REMARK    2  A    between atoms: CA_4  and  CB_3 
REMARK    3  A    between atoms: CA_4  and  C_6 
REMARK    4  A    between atoms: CA_4  and  N_7 
REMARK       I    between atoms: C_6  and  N_8 
REMARK       I    between atoms: N_7  and  C_10 
REMARK    5  A    between atoms: N_8  and  CA_11 
REMARK    6  A    between atoms: CA_12  and  C_10 
REMARK    7  A    between atoms: CA_11  and  CB_15 
REMARK    8  A    between atoms: CA_11  and  C_14 
REMARK    9  A    between atoms: CA_12  and  N_17 
REMARK   10  A    between atoms: CA_12  and  CB_16 
REMARK       I    between atoms: C_14  and  N_18 
REMARK   11  A    between atoms: CB_15  and  CG_20 
REMARK   12  A    between atoms: CB_16  and  CG_21 
REMARK       I    between atoms: N_17  and  C_22 
REMARK   13  A    between atoms: C_22  and  CA_29 
REMARK   14  A    between atoms: CA_24  and  C_33 
REMARK   15  A    between atoms: CA_29  and  N_39 
REMARK   16  A    between atoms: CA_29  and  CB_38 
REMARK       I    between atoms: C_33  and  N_40 
REMARK       I    between atoms: N_39  and  C_45 
REMARK   17  A    between atoms: N_40  and  CA_46 
REMARK   18  A    between atoms: CZ_42  and  OH_47 
REMARK   19  A    between atoms: CA_48  and  C_45 
REMARK   20  A    between atoms: CA_46  and  CB_51 
REMARK   21  A    between atoms: CA_46  and  C_50 
REMARK   22  A    between atoms: CA_48  and  N_52 
REMARK   23  A    between atoms: CA_48  and  CB_53 
REMARK       I    between atoms: C_50  and  N_54 
REMARK   24  A    between atoms: CB_51  and  CG_56 
REMARK       I    between atoms: N_52  and  C_57 
REMARK   25  A    between atoms: CB_53  and  CG_58 
REMARK   26  A    between atoms: N_54  and  CA_59 
REMARK   27  A    between atoms: C_57  and  CA_62 
REMARK   28  A    between atoms: CG_58  and  CD_64 
REMARK   29  A    between atoms: CA_59  and  CB_66 
REMARK   30  A    between atoms: CA_59  and  C_65 
REMARK   31  A    between atoms: CA_62  and  N_70 
REMARK   32  A    between atoms: CA_62  and  CB_69 
REMARK   33  A    between atoms: CD_64  and  NE_71 
REMARK       I    between atoms: C_65  and  N_72 
REMARK   34  A    between atoms: CB_66  and  CG_74 
REMARK   35  A    between atoms: CB_69  and  CG_76 
REMARK   36  A    between atoms: N_72  and  CA_78 
REMARK   37  A    between atoms: CG_76  and  OD1_82 
REMARK       I    between atoms: CZ_77  and  NH1_83 
REMARK       I    between atoms: CZ_77  and  NH2_84 
REMARK   38  A    between atoms: CA_78  and  CB_86 
REMARK   39  A    between atoms: CA_78  and  C_85 
REMARK   40  A    between atoms: C_85  and  O_90 
REMARK   41  A    between atoms: CB_86  and  CG_91 
ROOT
ATOM      1  CA  ILE d   5     -24.347 -12.481 -12.125  0.00  0.00     0.180 C 
ENDROOT
BRANCH   1   2
ATOM      2  C   ILE d   5     -24.871 -11.213 -11.370  0.00  0.00     0.241 C 
ATOM      3  O   ILE d   5     -26.009 -11.174 -10.905  0.00  0.00    -0.271 OA
ATOM      4  N   HIS d   6     -24.041 -10.120 -11.372  0.00  0.00    -0.346 N 
ATOM      5  H   HIS d   6     -23.097 -10.239 -11.694  0.00  0.00     0.163 HD
BRANCH   4   6
ATOM      6  CA  HIS d   6     -24.123  -8.972 -10.456  0.00  0.00     0.182 C 
BRANCH   6   7
ATOM      7  CB  HIS d   6     -23.477  -9.550  -9.133  0.00  0.00     0.087 C 
BRANCH   7   8
ATOM      8  CG  HIS d   6     -23.622  -8.902  -7.801  0.00  0.00     0.010 C 
ATOM      9  CD2 HIS d   6     -24.178  -9.319  -6.603  0.00  0.00     0.136 C 
ATOM     10  NE2 HIS d   6     -23.903  -8.404  -5.618  0.00  0.00    -0.260 NA
ATOM     11  CE1 HIS d   6     -23.199  -7.475  -6.215  0.00  0.00     0.180 C 
ATOM     12  ND1 HIS d   6     -23.444  -7.544  -7.564  0.00  0.00    -0.256 NA
ATOM     13  HD1 HIS d   6     -24.146  -6.911  -7.911  0.00  0.00     0.134 HD
ENDBRANCH   7   8
ENDBRANCH   6   7
BRANCH   6  14
ATOM     14  C   HIS d   6     -23.262  -7.829 -11.184  0.00  0.00     0.243 C 
ATOM     15  O   HIS d   6     -22.222  -7.432 -10.639  0.00  0.00    -0.271 OA
ATOM     16  N   PRO d   7     -23.632  -7.272 -12.437  0.00  0.00    -0.337 N 
ATOM     17  CD  PRO d   7     -24.285  -8.039 -13.500  0.00  0.00     0.127 C 
ATOM     18  CA  PRO d   7     -22.693  -6.288 -13.096  0.00  0.00     0.179 C 
ATOM     19  CG  PRO d   7     -23.245  -8.096 -14.623  0.00  0.00     0.022 C 
ATOM     20  CB  PRO d   7     -22.090  -7.197 -14.178  0.00  0.00     0.037 C 
BRANCH  18  21
ATOM     21  C   PRO d   7     -23.361  -5.043 -13.833  0.00  0.00     0.241 C 
ATOM     22  O   PRO d   7     -23.334  -4.964 -15.067  0.00  0.00    -0.271 OA
ATOM     23  N   PHE d   8     -24.040  -4.004 -13.218  0.00  0.00    -0.346 N 
ATOM     24  H   PHE d   8     -24.278  -3.366 -13.970  0.00  0.00     0.163 HD
BRANCH  23  25
ATOM     25  CA  PHE d   8     -23.961  -3.339 -11.875  0.00  0.00     0.180 C 
BRANCH  25  26
ATOM     26  CB  PHE d   8     -22.582  -3.639 -11.136  0.00  0.00     0.073 C 
BRANCH  26  27
ATOM     27  CG  PHE d   8     -21.248  -2.964 -11.517  0.00  0.00    -0.056 C 
ATOM     28  CD1 PHE d   8     -20.526  -3.383 -12.635  0.00  0.00     0.007 C 
ATOM     29  CE1 PHE d   8     -19.345  -2.722 -13.040  0.00  0.00     0.001 C 
ATOM     30  CZ  PHE d   8     -18.812  -1.669 -12.293  0.00  0.00     0.000 C 
ATOM     31  CE2 PHE d   8     -19.518  -1.210 -11.203  0.00  0.00     0.001 C 
ATOM     32  CD2 PHE d   8     -20.744  -1.798 -10.898  0.00  0.00     0.007 C 
ENDBRANCH  26  27
ENDBRANCH  25  26
BRANCH  25  33
ATOM     33  C   PHE d   8     -24.300  -1.850 -11.974  0.00  0.00     0.241 C 
ATOM     34  O   PHE d   8     -24.076  -1.247 -13.012  0.00  0.00    -0.271 OA
ATOM     35  N   HIS d   9     -24.784  -1.120 -10.938  0.00  0.00    -0.346 N 
ATOM     36  H   HIS d   9     -24.973  -0.204 -11.313  0.00  0.00     0.163 HD
BRANCH  35  37
ATOM     37  CA  HIS d   9     -25.404  -1.451  -9.640  0.00  0.00     0.182 C 
BRANCH  37  38
ATOM     38  CB  HIS d   9     -25.648  -2.903  -9.149  0.00  0.00     0.093 C 
BRANCH  38  39
ATOM     39  CG  HIS d   9     -27.004  -3.196  -8.669  0.00  0.00     0.030 C 
ATOM     40  CD2 HIS d   9     -28.063  -3.764  -9.314  0.00  0.00     0.143 C 
ATOM     41  NE2 HIS d   9     -29.082  -4.030  -8.448  0.00  0.00    -0.254 NA
ATOM     42  CE1 HIS d   9     -28.687  -3.540  -7.299  0.00  0.00     0.207 C 
ATOM     43  ND1 HIS d   9     -27.501  -2.875  -7.431  0.00  0.00    -0.353 N 
ATOM     44  HD1 HIS d   9     -27.077  -2.282  -6.732  0.00  0.00     0.166 HD
ENDBRANCH  38  39
ENDBRANCH  37  38
BRANCH  37  45
ATOM     45  C   HIS d   9     -25.230  -0.447  -8.445  0.00  0.00     0.241 C 
ATOM     46  O   HIS d   9     -25.857  -0.621  -7.393  0.00  0.00    -0.271 OA
ATOM     47  N   LEU d  10     -24.487   0.701  -8.490  0.00  0.00    -0.345 N 
ATOM     48  H   LEU d  10     -24.633   1.175  -7.602  0.00  0.00     0.163 HD
BRANCH  47  49
ATOM     49  CA  LEU d  10     -23.087   0.904  -8.927  0.00  0.00     0.182 C 
BRANCH  49  50
ATOM     50  CB  LEU d  10     -22.813   2.329  -9.383  0.00  0.00     0.040 C 
BRANCH  50  51
ATOM     51  CG  LEU d  10     -23.665   2.795 -10.537  0.00  0.00    -0.020 C 
ATOM     52  CD1 LEU d  10     -23.545   4.304 -10.621  0.00  0.00     0.009 C 
ATOM     53  CD2 LEU d  10     -23.302   2.008 -11.784  0.00  0.00     0.009 C 
ENDBRANCH  50  51
ENDBRANCH  49  50
BRANCH  49  54
ATOM     54  C   LEU d  10     -22.119   0.313  -7.873  0.00  0.00     0.163 C 
ATOM     55  OXT LEU d  10     -22.453  -0.153  -6.784  0.00  0.00    -0.648 OA
BRANCH  54  56
ATOM     56  O   LEU d  10     -20.831   0.351  -8.270  0.00  0.00    -0.775 OA
ATOM     57  H   LEU d  10     -20.456  -0.550  -8.303  0.00  0.00     0.167 HD
ENDBRANCH  54  56
ENDBRANCH  49  54
ENDBRANCH  47  49
ENDBRANCH  37  45
ENDBRANCH  35  37
ENDBRANCH  25  33
ENDBRANCH  23  25
ENDBRANCH  18  21
ENDBRANCH   6  14
ENDBRANCH   4   6
ENDBRANCH   1   2
BRANCH   1  58
ATOM     58  N   ILE d   5     -24.514 -12.192 -13.566  0.00  0.00    -0.346 N 
ATOM     59  C   TYR d   4     -25.328 -12.920 -14.414  0.00  0.00     0.241 C 
ATOM     60  O   TYR d   4     -25.876 -13.953 -14.039  0.00  0.00    -0.271 OA
ATOM     61  H   ILE d   5     -24.409 -11.211 -13.807  0.00  0.00     0.163 HD
BRANCH  59  62
ATOM     62  CA  TYR d   4     -25.506 -12.371 -15.879  0.00  0.00     0.180 C 
BRANCH  62  63
ATOM     63  N   TYR d   4     -24.839 -13.275 -16.880  0.00  0.00    -0.346 N 
ATOM     64  C   VAL d   3     -23.939 -12.752 -17.807  0.00  0.00     0.241 C 
ATOM     65  O   VAL d   3     -23.681 -11.554 -17.747  0.00  0.00    -0.271 OA
ATOM     66  H   TYR d   4     -25.409 -14.032 -17.233  0.00  0.00     0.163 HD
BRANCH  64  67
ATOM     67  CA  VAL d   3     -23.328 -13.715 -18.927  0.00  0.00     0.180 C 
BRANCH  67  68
ATOM     68  N   VAL d   3     -23.251 -13.322 -20.390  0.00  0.00    -0.346 N 
ATOM     69  C   ARG d   2     -23.254 -13.875 -21.635  0.00  0.00     0.241 C 
ATOM     70  O   ARG d   2     -22.861 -13.111 -22.530  0.00  0.00    -0.271 OA
ATOM     71  H   VAL d   3     -22.766 -12.434 -20.526  0.00  0.00     0.163 HD
BRANCH  69  72
ATOM     72  CA  ARG d   2     -23.909 -15.223 -21.950  0.00  0.00     0.176 C 
BRANCH  72  73
ATOM     73  N   ARG d   2     -25.108 -15.399 -21.121  0.00  0.00    -0.346 N 
ATOM     74  C   ASP d   1     -25.297 -16.474 -20.288  0.00  0.00     0.252 C 
ATOM     75  O   ASP d   1     -24.618 -17.503 -20.327  0.00  0.00    -0.271 OA
ATOM     76  H   ARG d   2     -25.514 -14.524 -20.800  0.00  0.00     0.163 HD
BRANCH  74  77
ATOM     77  CA  ASP d   1     -26.492 -16.347 -19.305  0.00  0.00     0.318 C 
BRANCH  77  78
ATOM     78  N   ASP d   1     -27.703 -16.874 -19.995  0.00  0.00     0.092 N 
ATOM     79  H1  ASP d   1     -27.705 -16.580 -20.970  0.00  0.00     0.313 HD
ATOM     80  H2  ASP d   1     -28.515 -16.391 -19.584  0.00  0.00     0.313 HD
ENDBRANCH  77  78
BRANCH  77  81
ATOM     81  CB  ASP d   1     -26.216 -17.148 -18.027  0.00  0.00     0.155 C 
BRANCH  81  82
ATOM     82  CG  ASP d   1     -27.449 -17.284 -17.181  0.00  0.00     0.141 C 
ATOM     83  OD2 ASP d   1     -28.480 -16.640 -17.283  0.00  0.00    -0.650 OA
BRANCH  82  84
ATOM     84  OD1 ASP d   1     -27.350 -18.291 -16.292  0.00  0.00    -0.776 OA
ATOM     85  HD1 ASP d   1     -26.390 -18.398 -16.136  0.00  0.00     0.167 HD
ENDBRANCH  82  84
ENDBRANCH  81  82
ENDBRANCH  77  81
ENDBRANCH  74  77
ENDBRANCH  72  73
BRANCH  72  86
ATOM     86  CB  ARG d   2     -23.916 -15.570 -23.452  0.00  0.00     0.037 C 
BRANCH  86  87
ATOM     87  CG  ARG d   2     -24.584 -16.845 -23.993  0.00  0.00     0.024 C 
BRANCH  87  88
ATOM     88  CD  ARG d   2     -26.091 -16.775 -24.215  0.00  0.00     0.152 C 
BRANCH  88  89
ATOM     89  NE  ARG d   2     -26.780 -17.500 -23.161  0.00  0.00    -0.268 NA
ATOM     90  CZ  ARG d   2     -27.775 -18.248 -23.366  0.00  0.00     0.143 C 
ATOM     91  NH1 ARG d   2     -28.353 -18.843 -22.310  0.00  0.00    -0.278 NA
ATOM     92  NH2 ARG d   2     -28.423 -18.545 -24.520  0.00  0.00    -0.278 NA
ATOM     93 1HH1 ARG d   2     -27.732 -18.778 -21.490  0.00  0.00     0.126 HD
ATOM     94 2HH1 ARG d   2     -28.760 -19.752 -22.443  0.00  0.00     0.126 HD
ATOM     95 1HH2 ARG d   2     -27.919 -18.319 -25.372  0.00  0.00     0.126 HD
ATOM     96 2HH2 ARG d   2     -28.843 -19.474 -24.565  0.00  0.00     0.126 HD
ENDBRANCH  88  89
ENDBRANCH  87  88
ENDBRANCH  86  87
ENDBRANCH  72  86
ENDBRANCH  69  72
ENDBRANCH  67  68
BRANCH  67  97
ATOM     97  CB  VAL d   3     -21.833 -14.070 -18.596  0.00  0.00     0.009 C 
ATOM     98  CG1 VAL d   3     -20.875 -13.033 -19.202  0.00  0.00     0.012 C 
ATOM     99  CG2 VAL d   3     -21.504 -14.339 -17.131  0.00  0.00     0.012 C 
ENDBRANCH  67  97
ENDBRANCH  64  67
ENDBRANCH  62  63
BRANCH  62 100
ATOM    100  CB  TYR d   4     -27.004 -12.118 -16.253  0.00  0.00     0.073 C 
BRANCH 100 101
ATOM    101  CG  TYR d   4     -27.321 -11.466 -17.595  0.00  0.00    -0.056 A 
ATOM    102  CD1 TYR d   4     -26.960 -10.135 -17.868  0.00  0.00     0.010 A 
ATOM    103  CE1 TYR d   4     -27.201  -9.561 -19.126  0.00  0.00     0.037 A 
ATOM    104  CZ  TYR d   4     -27.821 -10.296 -20.120  0.00  0.00     0.065 A 
ATOM    105  CE2 TYR d   4     -28.169 -11.617 -19.893  0.00  0.00     0.037 A 
ATOM    106  CD2 TYR d   4     -27.892 -12.189 -18.645  0.00  0.00     0.010 A 
BRANCH 104 107
ATOM    107  OH  TYR d   4     -28.059  -9.720 -21.327  0.00  0.00    -0.361 OA
ATOM    108  HH  TYR d   4     -28.214  -8.775 -21.151  0.00  0.00     0.217 HD
ENDBRANCH 104 107
ENDBRANCH 100 101
ENDBRANCH  62 100
ENDBRANCH  59  62
ENDBRANCH   1  58
BRANCH   1 109
ATOM    109  CB  ILE d   5     -22.958 -13.036 -11.618  0.00  0.00     0.013 C 
ATOM    110  CG2 ILE d   5     -22.959 -14.526 -11.250  0.00  0.00     0.012 C 
BRANCH 109 111
ATOM    111  CG1 ILE d   5     -21.822 -12.658 -12.609  0.00  0.00     0.002 C 
ATOM    112  CD1 ILE d   5     -20.771 -13.729 -12.870  0.00  0.00     0.005 C 
ENDBRANCH 109 111
ENDBRANCH   1 109
TORSDOF 41
ENDMDL
MODEL 9
REMARK VINA RESULT:      -8.8      2.519      6.563
REMARK WARNING: 32 MAX_TORS EXCEEDED!!!
REMARK  41 active torsions:
REMARK  status: ('A' for Active; 'I' for Inactive)
REMARK    1  A    between atoms: CB_3  and  CG1_2 
REMARK    2  A    between atoms: CA_4  and  CB_3 
REMARK    3  A    between atoms: CA_4  and  C_6 
REMARK    4  A    between atoms: CA_4  and  N_7 
REMARK       I    between atoms: C_6  and  N_8 
REMARK       I    between atoms: N_7  and  C_10 
REMARK    5  A    between atoms: N_8  and  CA_11 
REMARK    6  A    between atoms: CA_12  and  C_10 
REMARK    7  A    between atoms: CA_11  and  CB_15 
REMARK    8  A    between atoms: CA_11  and  C_14 
REMARK    9  A    between atoms: CA_12  and  N_17 
REMARK   10  A    between atoms: CA_12  and  CB_16 
REMARK       I    between atoms: C_14  and  N_18 
REMARK   11  A    between atoms: CB_15  and  CG_20 
REMARK   12  A    between atoms: CB_16  and  CG_21 
REMARK       I    between atoms: N_17  and  C_22 
REMARK   13  A    between atoms: C_22  and  CA_29 
REMARK   14  A    between atoms: CA_24  and  C_33 
REMARK   15  A    between atoms: CA_29  and  N_39 
REMARK   16  A    between atoms: CA_29  and  CB_38 
REMARK       I    between atoms: C_33  and  N_40 
REMARK       I    between atoms: N_39  and  C_45 
REMARK   17  A    between atoms: N_40  and  CA_46 
REMARK   18  A    between atoms: CZ_42  and  OH_47 
REMARK   19  A    between atoms: CA_48  and  C_45 
REMARK   20  A    between atoms: CA_46  and  CB_51 
REMARK   21  A    between atoms: CA_46  and  C_50 
REMARK   22  A    between atoms: CA_48  and  N_52 
REMARK   23  A    between atoms: CA_48  and  CB_53 
REMARK       I    between atoms: C_50  and  N_54 
REMARK   24  A    between atoms: CB_51  and  CG_56 
REMARK       I    between atoms: N_52  and  C_57 
REMARK   25  A    between atoms: CB_53  and  CG_58 
REMARK   26  A    between atoms: N_54  and  CA_59 
REMARK   27  A    between atoms: C_57  and  CA_62 
REMARK   28  A    between atoms: CG_58  and  CD_64 
REMARK   29  A    between atoms: CA_59  and  CB_66 
REMARK   30  A    between atoms: CA_59  and  C_65 
REMARK   31  A    between atoms: CA_62  and  N_70 
REMARK   32  A    between atoms: CA_62  and  CB_69 
REMARK   33  A    between atoms: CD_64  and  NE_71 
REMARK       I    between atoms: C_65  and  N_72 
REMARK   34  A    between atoms: CB_66  and  CG_74 
REMARK   35  A    between atoms: CB_69  and  CG_76 
REMARK   36  A    between atoms: N_72  and  CA_78 
REMARK   37  A    between atoms: CG_76  and  OD1_82 
REMARK       I    between atoms: CZ_77  and  NH1_83 
REMARK       I    between atoms: CZ_77  and  NH2_84 
REMARK   38  A    between atoms: CA_78  and  CB_86 
REMARK   39  A    between atoms: CA_78  and  C_85 
REMARK   40  A    between atoms: C_85  and  O_90 
REMARK   41  A    between atoms: CB_86  and  CG_91 
ROOT
ATOM      1  CA  ILE d   5     -18.685  -9.527 -10.677  0.00  0.00     0.180 C 
ENDROOT
BRANCH   1   2
ATOM      2  C   ILE d   5     -18.423 -10.855 -11.465  0.00  0.00     0.241 C 
ATOM      3  O   ILE d   5     -17.345 -11.440 -11.388  0.00  0.00    -0.271 OA
ATOM      4  N   HIS d   6     -19.412 -11.249 -12.333  0.00  0.00    -0.346 N 
ATOM      5  H   HIS d   6     -20.298 -10.779 -12.292  0.00  0.00     0.163 HD
BRANCH   4   6
ATOM      6  CA  HIS d   6     -19.579 -12.598 -12.895  0.00  0.00     0.182 C 
BRANCH   6   7
ATOM      7  CB  HIS d   6     -20.251 -13.381 -11.696  0.00  0.00     0.087 C 
BRANCH   7   8
ATOM      8  CG  HIS d   6     -21.710 -13.663 -11.619  0.00  0.00     0.010 C 
ATOM      9  CD2 HIS d   6     -22.829 -12.847 -11.570  0.00  0.00     0.136 C 
ATOM     10  NE2 HIS d   6     -23.965 -13.608 -11.680  0.00  0.00    -0.260 NA
ATOM     11  CE1 HIS d   6     -23.532 -14.838 -11.798  0.00  0.00     0.180 C 
ATOM     12  ND1 HIS d   6     -22.256 -14.899 -11.294  0.00  0.00    -0.256 NA
ATOM     13  HD1 HIS d   6     -22.181 -15.209 -10.339  0.00  0.00     0.134 HD
ENDBRANCH   7   8
ENDBRANCH   6   7
BRANCH   6  14
ATOM     14  C   HIS d   6     -20.527 -12.375 -14.171  0.00  0.00     0.243 C 
ATOM     15  O   HIS d   6     -20.521 -11.268 -14.729  0.00  0.00    -0.271 OA
ATOM     16  N   PRO d   7     -21.355 -13.402 -14.700  0.00  0.00    -0.337 N 
ATOM     17  CD  PRO d   7     -20.982 -14.818 -14.704  0.00  0.00     0.127 C 
ATOM     18  CA  PRO d   7     -22.121 -13.129 -15.974  0.00  0.00     0.179 C 
ATOM     19  CG  PRO d   7     -20.806 -15.162 -16.185  0.00  0.00     0.022 C 
ATOM     20  CB  PRO d   7     -21.258 -13.925 -16.965  0.00  0.00     0.037 C 
BRANCH  18  21
ATOM     21  C   PRO d   7     -23.603 -13.705 -16.058  0.00  0.00     0.241 C 
ATOM     22  O   PRO d   7     -23.984 -14.559 -15.248  0.00  0.00    -0.271 OA
ATOM     23  N   PHE d   8     -24.580 -13.309 -16.956  0.00  0.00    -0.346 N 
ATOM     24  H   PHE d   8     -25.371 -13.914 -16.767  0.00  0.00     0.163 HD
BRANCH  23  25
ATOM     25  CA  PHE d   8     -24.569 -12.762 -18.354  0.00  0.00     0.180 C 
BRANCH  25  26
ATOM     26  CB  PHE d   8     -23.227 -11.969 -18.679  0.00  0.00     0.073 C 
BRANCH  26  27
ATOM     27  CG  PHE d   8     -23.004 -10.488 -18.314  0.00  0.00    -0.056 C 
ATOM     28  CD1 PHE d   8     -24.047  -9.564 -18.397  0.00  0.00     0.007 C 
ATOM     29  CE1 PHE d   8     -23.877  -8.222 -17.990  0.00  0.00     0.001 C 
ATOM     30  CZ  PHE d   8     -22.636  -7.747 -17.560  0.00  0.00     0.000 C 
ATOM     31  CE2 PHE d   8     -21.595  -8.640 -17.435  0.00  0.00     0.001 C 
ATOM     32  CD2 PHE d   8     -21.823  -9.985 -17.724  0.00  0.00     0.007 C 
ENDBRANCH  26  27
ENDBRANCH  25  26
BRANCH  25  33
ATOM     33  C   PHE d   8     -24.910 -13.849 -19.376  0.00  0.00     0.241 C 
ATOM     34  O   PHE d   8     -24.052 -14.243 -20.150  0.00  0.00    -0.271 OA
ATOM     35  N   HIS d   9     -26.154 -14.372 -19.528  0.00  0.00    -0.346 N 
ATOM     36  H   HIS d   9     -26.061 -15.103 -20.216  0.00  0.00     0.163 HD
BRANCH  35  37
ATOM     37  CA  HIS d   9     -27.380 -14.380 -18.707  0.00  0.00     0.182 C 
BRANCH  37  38
ATOM     38  CB  HIS d   9     -28.452 -13.260 -18.754  0.00  0.00     0.093 C 
BRANCH  38  39
ATOM     39  CG  HIS d   9     -28.135 -12.039 -18.004  0.00  0.00     0.030 C 
ATOM     40  CD2 HIS d   9     -28.114 -11.812 -16.660  0.00  0.00     0.143 C 
ATOM     41  NE2 HIS d   9     -27.579 -10.589 -16.375  0.00  0.00    -0.254 NA
ATOM     42  CE1 HIS d   9     -27.366 -10.033 -17.542  0.00  0.00     0.207 C 
ATOM     43  ND1 HIS d   9     -27.847 -10.815 -18.553  0.00  0.00    -0.353 N 
ATOM     44  HD1 HIS d   9     -27.945 -10.534 -19.519  0.00  0.00     0.166 HD
ENDBRANCH  38  39
ENDBRANCH  37  38
BRANCH  37  45
ATOM     45  C   HIS d   9     -27.991 -15.762 -18.280  0.00  0.00     0.241 C 
ATOM     46  O   HIS d   9     -29.200 -15.858 -18.040  0.00  0.00    -0.271 OA
ATOM     47  N   LEU d  10     -27.265 -16.900 -18.051  0.00  0.00    -0.345 N 
ATOM     48  H   LEU d  10     -27.924 -17.599 -17.713  0.00  0.00     0.163 HD
BRANCH  47  49
ATOM     49  CA  LEU d  10     -26.247 -17.558 -18.899  0.00  0.00     0.182 C 
BRANCH  49  50
ATOM     50  CB  LEU d  10     -25.564 -18.726 -18.203  0.00  0.00     0.040 C 
BRANCH  50  51
ATOM     51  CG  LEU d  10     -24.058 -18.642 -18.168  0.00  0.00    -0.020 C 
ATOM     52  CD1 LEU d  10     -23.677 -17.175 -18.125  0.00  0.00     0.009 C 
ATOM     53  CD2 LEU d  10     -23.529 -19.521 -17.048  0.00  0.00     0.009 C 
ENDBRANCH  50  51
ENDBRANCH  49  50
BRANCH  49  54
ATOM     54  C   LEU d  10     -26.837 -17.836 -20.304  0.00  0.00     0.163 C 
ATOM     55  OXT LEU d  10     -27.627 -18.739 -20.576  0.00  0.00    -0.648 OA
BRANCH  54  56
ATOM     56  O   LEU d  10     -26.395 -16.967 -21.235  0.00  0.00    -0.775 OA
ATOM     57  H   LEU d  10     -25.479 -16.691 -21.037  0.00  0.00     0.167 HD
ENDBRANCH  54  56
ENDBRANCH  49  54
ENDBRANCH  47  49
ENDBRANCH  37  45
ENDBRANCH  35  37
ENDBRANCH  25  33
ENDBRANCH  23  25
ENDBRANCH  18  21
ENDBRANCH   6  14
ENDBRANCH   4   6
ENDBRANCH   1   2
BRANCH   1  58
ATOM     58  N   ILE d   5     -20.013  -9.049 -11.119  0.00  0.00    -0.346 N 
ATOM     59  C   TYR d   4     -20.329  -7.719 -11.329  0.00  0.00     0.241 C 
ATOM     60  O   TYR d   4     -19.542  -6.823 -11.031  0.00  0.00    -0.271 OA
ATOM     61  H   ILE d   5     -20.517  -9.709 -11.705  0.00  0.00     0.163 HD
BRANCH  59  62
ATOM     62  CA  TYR d   4     -21.742  -7.410 -11.952  0.00  0.00     0.180 C 
BRANCH  62  63
ATOM     63  N   TYR d   4     -21.934  -5.931 -12.149  0.00  0.00    -0.346 N 
ATOM     64  C   VAL d   3     -22.826  -5.226 -11.343  0.00  0.00     0.241 C 
ATOM     65  O   VAL d   3     -23.405  -5.839 -10.452  0.00  0.00    -0.271 OA
ATOM     66  H   TYR d   4     -21.893  -5.609 -13.108  0.00  0.00     0.163 HD
BRANCH  64  67
ATOM     67  CA  VAL d   3     -23.091  -3.679 -11.645  0.00  0.00     0.180 C 
BRANCH  67  68
ATOM     68  N   VAL d   3     -22.314  -2.568 -10.965  0.00  0.00    -0.346 N 
ATOM     69  C   ARG d   2     -22.452  -1.275 -10.559  0.00  0.00     0.241 C 
ATOM     70  O   ARG d   2     -21.380  -0.706 -10.304  0.00  0.00    -0.271 OA
ATOM     71  H   VAL d   3     -21.306  -2.670 -11.090  0.00  0.00     0.163 HD
BRANCH  69  72
ATOM     72  CA  ARG d   2     -23.806  -0.648 -10.210  0.00  0.00     0.176 C 
BRANCH  72  73
ATOM     73  N   ARG d   2     -24.560  -0.379 -11.440  0.00  0.00    -0.346 N 
ATOM     74  C   ASP d   1     -24.289   0.678 -12.274  0.00  0.00     0.252 C 
ATOM     75  O   ASP d   1     -23.568   1.631 -11.966  0.00  0.00    -0.271 OA
ATOM     76  H   ARG d   2     -24.905  -1.218 -11.899  0.00  0.00     0.163 HD
BRANCH  74  77
ATOM     77  CA  ASP d   1     -25.014   0.641 -13.647  0.00  0.00     0.318 C 
BRANCH  77  78
ATOM     78  N   ASP d   1     -24.312  -0.359 -14.501  0.00  0.00     0.092 N 
ATOM     79  H1  ASP d   1     -23.505   0.071 -14.950  0.00  0.00     0.313 HD
ATOM     80  H2  ASP d   1     -24.945  -0.582 -15.282  0.00  0.00     0.313 HD
ENDBRANCH  77  78
BRANCH  77  81
ATOM     81  CB  ASP d   1     -26.483   0.246 -13.462  0.00  0.00     0.155 C 
BRANCH  81  82
ATOM     82  CG  ASP d   1     -27.375   0.955 -14.440  0.00  0.00     0.141 C 
ATOM     83  OD2 ASP d   1     -28.593   0.934 -14.465  0.00  0.00    -0.650 OA
BRANCH  82  84
ATOM     84  OD1 ASP d   1     -26.680   1.730 -15.295  0.00  0.00    -0.776 OA
ATOM     85  HD1 ASP d   1     -26.548   1.176 -16.090  0.00  0.00     0.167 HD
ENDBRANCH  82  84
ENDBRANCH  81  82
ENDBRANCH  77  81
ENDBRANCH  74  77
ENDBRANCH  72  73
BRANCH  72  86
ATOM     86  CB  ARG d   2     -24.482  -1.284  -8.978  0.00  0.00     0.037 C 
BRANCH  86  87
ATOM     87  CG  ARG d   2     -24.780  -0.478  -7.704  0.00  0.00     0.024 C 
BRANCH  87  88
ATOM     88  CD  ARG d   2     -24.128   0.896  -7.606  0.00  0.00     0.152 C 
BRANCH  88  89
ATOM     89  NE  ARG d   2     -24.606   1.588  -6.420  0.00  0.00    -0.268 NA
ATOM     90  CZ  ARG d   2     -25.625   2.332  -6.412  0.00  0.00     0.143 C 
ATOM     91  NH1 ARG d   2     -25.955   2.946  -5.264  0.00  0.00    -0.278 NA
ATOM     92  NH2 ARG d   2     -26.469   2.671  -7.417  0.00  0.00    -0.278 NA
ATOM     93 1HH1 ARG d   2     -25.440   2.519  -4.480  0.00  0.00     0.126 HD
ATOM     94 2HH1 ARG d   2     -26.928   3.105  -5.076  0.00  0.00     0.126 HD
ATOM     95 1HH2 ARG d   2     -26.420   2.081  -8.243  0.00  0.00     0.126 HD
ATOM     96 2HH2 ARG d   2     -27.435   2.854  -7.141  0.00  0.00     0.126 HD
ENDBRANCH  88  89
ENDBRANCH  87  88
ENDBRANCH  86  87
ENDBRANCH  72  86
ENDBRANCH  69  72
ENDBRANCH  67  68
BRANCH  67  97
ATOM     97  CB  VAL d   3     -22.863  -3.364 -13.167  0.00  0.00     0.009 C 
ATOM     98  CG1 VAL d   3     -21.365  -3.242 -13.484  0.00  0.00     0.012 C 
ATOM     99  CG2 VAL d   3     -23.568  -4.278 -14.166  0.00  0.00     0.012 C 
ENDBRANCH  67  97
ENDBRANCH  64  67
ENDBRANCH  62  63
BRANCH  62 100
ATOM    100  CB  TYR d   4     -22.004  -8.198 -13.278  0.00  0.00     0.073 C 
BRANCH 100 101
ATOM    101  CG  TYR d   4     -23.204  -9.136 -13.345  0.00  0.00    -0.056 A 
ATOM    102  CD1 TYR d   4     -24.061  -9.313 -12.244  0.00  0.00     0.010 A 
ATOM    103  CE1 TYR d   4     -25.197 -10.131 -12.332  0.00  0.00     0.037 A 
ATOM    104  CZ  TYR d   4     -25.486 -10.798 -13.509  0.00  0.00     0.065 A 
ATOM    105  CE2 TYR d   4     -24.677 -10.629 -14.620  0.00  0.00     0.037 A 
ATOM    106  CD2 TYR d   4     -23.565  -9.783 -14.530  0.00  0.00     0.010 A 
BRANCH 104 107
ATOM    107  OH  TYR d   4     -26.583 -11.596 -13.572  0.00  0.00    -0.361 OA
ATOM    108  HH  TYR d   4     -27.005 -11.413 -14.430  0.00  0.00     0.217 HD
ENDBRANCH 104 107
ENDBRANCH 100 101
ENDBRANCH  62 100
ENDBRANCH  59  62
ENDBRANCH   1  58
BRANCH   1 109
ATOM    109  CB  ILE d   5     -18.380  -9.595  -9.130  0.00  0.00     0.013 C 
ATOM    110  CG2 ILE d   5     -17.531  -8.435  -8.592  0.00  0.00     0.012 C 
BRANCH 109 111
ATOM    111  CG1 ILE d   5     -19.690  -9.812  -8.321  0.00  0.00     0.002 C 
ATOM    112  CD1 ILE d   5     -20.146  -8.647  -7.452  0.00  0.00     0.005 C 
ENDBRANCH 109 111
ENDBRANCH   1 109
TORSDOF 41
ENDMDL
