MODEL 1
REMARK VINA RESULT:      -3.7      0.000      0.000
REMARK  2 active torsions:
REMARK  status: ('A' for Active; 'I' for Inactive)
REMARK    1  A    between atoms: C_2  and  O_1 
REMARK    2  A    between atoms: C_3  and  C_2 
ROOT
ATOM      1  C   UNL d   1      -5.672 -12.421  20.904  0.00  0.00     0.213 C 
ATOM      2  O   UNL d   1      -5.426 -11.262  20.643  0.00  0.00    -0.644 OA
ENDROOT
BRANCH   1   3
ATOM      3  C   UNL d   1      -6.561 -13.306  20.037  0.00  0.00     0.218 C 
ATOM      4  C   UNL d   1      -7.145 -12.681  18.809  0.00  0.00     0.103 C 
ATOM      5  O   UNL d   1      -6.741 -14.465  20.402  0.00  0.00    -0.286 OA
ENDBRANCH   1   3
BRANCH   1   6
ATOM      6  O   UNL d   1      -5.217 -13.109  21.969  0.00  0.00    -0.771 OA
ATOM      7  H   UNL d   1      -4.381 -13.572  21.721  0.00  0.00     0.168 HD
ENDBRANCH   1   6
TORSDOF 2
ENDMDL
MODEL 2
REMARK VINA RESULT:      -3.4     21.421     22.204
REMARK  2 active torsions:
REMARK  status: ('A' for Active; 'I' for Inactive)
REMARK    1  A    between atoms: C_2  and  O_1 
REMARK    2  A    between atoms: C_3  and  C_2 
ROOT
ATOM      1  C   UNL d   1     -10.857   5.202  32.587  0.00  0.00     0.213 C 
ATOM      2  O   UNL d   1     -10.691   6.370  32.868  0.00  0.00    -0.644 OA
ENDROOT
BRANCH   1   3
ATOM      3  C   UNL d   1     -10.753   4.071  33.605  0.00  0.00     0.218 C 
ATOM      4  C   UNL d   1     -11.147   4.390  35.013  0.00  0.00     0.103 C 
ATOM      5  O   UNL d   1     -10.353   2.981  33.207  0.00  0.00    -0.286 OA
ENDBRANCH   1   3
BRANCH   1   6
ATOM      6  O   UNL d   1     -11.154   4.713  31.368  0.00  0.00    -0.771 OA
ATOM      7  H   UNL d   1     -10.908   5.381  30.684  0.00  0.00     0.168 HD
ENDBRANCH   1   6
TORSDOF 2
ENDMDL
MODEL 3
REMARK VINA RESULT:      -3.3     17.639     18.252
REMARK  2 active torsions:
REMARK  status: ('A' for Active; 'I' for Inactive)
REMARK    1  A    between atoms: C_2  and  O_1 
REMARK    2  A    between atoms: C_3  and  C_2 
ROOT
ATOM      1  C   UNL d   1     -23.075  -9.364  14.913  0.00  0.00     0.213 C 
ATOM      2  O   UNL d   1     -24.116  -8.859  15.277  0.00  0.00    -0.644 OA
ENDROOT
BRANCH   1   3
ATOM      3  C   UNL d   1     -22.569  -9.298  13.476  0.00  0.00     0.218 C 
ATOM      4  C   UNL d   1     -23.572  -8.955  12.421  0.00  0.00     0.103 C 
ATOM      5  O   UNL d   1     -21.379  -9.531  13.279  0.00  0.00    -0.286 OA
ENDBRANCH   1   3
BRANCH   1   6
ATOM      6  O   UNL d   1     -22.210 -10.048  15.686  0.00  0.00    -0.771 OA
ATOM      7  H   UNL d   1     -21.381  -9.522  15.785  0.00  0.00     0.168 HD
ENDBRANCH   1   6
TORSDOF 2
ENDMDL
MODEL 4
REMARK VINA RESULT:      -3.2      1.303      1.977
REMARK  2 active torsions:
REMARK  status: ('A' for Active; 'I' for Inactive)
REMARK    1  A    between atoms: C_2  and  O_1 
REMARK    2  A    between atoms: C_3  and  C_2 
ROOT
ATOM      1  C   UNL d   1      -5.988 -12.327  20.711  0.00  0.00     0.213 C 
ATOM      2  O   UNL d   1      -5.212 -12.889  21.455  0.00  0.00    -0.644 OA
ENDROOT
BRANCH   1   3
ATOM      3  C   UNL d   1      -7.305 -12.943  20.251  0.00  0.00     0.218 C 
ATOM      4  C   UNL d   1      -8.360 -13.138  21.294  0.00  0.00     0.103 C 
ATOM      5  O   UNL d   1      -7.413 -13.238  19.065  0.00  0.00    -0.286 OA
ENDBRANCH   1   3
BRANCH   1   6
ATOM      6  O   UNL d   1      -5.828 -11.101  20.176  0.00  0.00    -0.771 OA
ATOM      7  H   UNL d   1      -6.699 -10.636  20.170  0.00  0.00     0.168 HD
ENDBRANCH   1   6
TORSDOF 2
ENDMDL
MODEL 5
REMARK VINA RESULT:      -3.2     16.569     17.107
REMARK  2 active torsions:
REMARK  status: ('A' for Active; 'I' for Inactive)
REMARK    1  A    between atoms: C_2  and  O_1 
REMARK    2  A    between atoms: C_3  and  C_2 
ROOT
ATOM      1  C   UNL d   1     -12.681 -21.546  33.827  0.00  0.00     0.213 C 
ATOM      2  O   UNL d   1     -11.630 -21.979  34.250  0.00  0.00    -0.644 OA
ENDROOT
BRANCH   1   3
ATOM      3  C   UNL d   1     -13.316 -22.013  32.521  0.00  0.00     0.218 C 
ATOM      4  C   UNL d   1     -13.999 -23.344  32.540  0.00  0.00     0.103 C 
ATOM      5  O   UNL d   1     -13.225 -21.272  31.546  0.00  0.00    -0.286 OA
ENDBRANCH   1   3
BRANCH   1   6
ATOM      6  O   UNL d   1     -13.447 -20.607  34.415  0.00  0.00    -0.771 OA
ATOM      7  H   UNL d   1     -14.333 -20.994  34.617  0.00  0.00     0.168 HD
ENDBRANCH   1   6
TORSDOF 2
ENDMDL
MODEL 6
REMARK VINA RESULT:      -3.2      2.600      3.348
REMARK  2 active torsions:
REMARK  status: ('A' for Active; 'I' for Inactive)
REMARK    1  A    between atoms: C_2  and  O_1 
REMARK    2  A    between atoms: C_3  and  C_2 
ROOT
ATOM      1  C   UNL d   1      -7.150 -14.770  21.446  0.00  0.00     0.213 C 
ATOM      2  O   UNL d   1      -6.941 -15.456  20.468  0.00  0.00    -0.644 OA
ENDROOT
BRANCH   1   3
ATOM      3  C   UNL d   1      -8.498 -14.710  22.156  0.00  0.00     0.218 C 
ATOM      4  C   UNL d   1      -9.240 -13.412  22.090  0.00  0.00     0.103 C 
ATOM      5  O   UNL d   1      -8.884 -15.722  22.734  0.00  0.00    -0.286 OA
ENDBRANCH   1   3
BRANCH   1   6
ATOM      6  O   UNL d   1      -6.259 -13.966  22.057  0.00  0.00    -0.771 OA
ATOM      7  H   UNL d   1      -6.134 -14.272  22.988  0.00  0.00     0.168 HD
ENDBRANCH   1   6
TORSDOF 2
ENDMDL
MODEL 7
REMARK VINA RESULT:      -3.1     11.810     12.483
REMARK  2 active torsions:
REMARK  status: ('A' for Active; 'I' for Inactive)
REMARK    1  A    between atoms: C_2  and  O_1 
REMARK    2  A    between atoms: C_3  and  C_2 
ROOT
ATOM      1  C   UNL d   1      -2.800  -1.938  24.030  0.00  0.00     0.213 C 
ATOM      2  O   UNL d   1      -3.932  -2.323  24.233  0.00  0.00    -0.644 OA
ENDROOT
BRANCH   1   3
ATOM      3  C   UNL d   1      -2.419  -1.034  22.863  0.00  0.00     0.218 C 
ATOM      4  C   UNL d   1      -1.303  -1.501  21.983  0.00  0.00     0.103 C 
ATOM      5  O   UNL d   1      -3.047   0.012  22.723  0.00  0.00    -0.286 OA
ENDBRANCH   1   3
BRANCH   1   6
ATOM      6  O   UNL d   1      -1.717  -2.229  24.775  0.00  0.00    -0.771 OA
ATOM      7  H   UNL d   1      -1.948  -2.139  25.731  0.00  0.00     0.168 HD
ENDBRANCH   1   6
TORSDOF 2
ENDMDL
MODEL 8
REMARK VINA RESULT:      -3.1     16.311     17.019
REMARK  2 active torsions:
REMARK  status: ('A' for Active; 'I' for Inactive)
REMARK    1  A    between atoms: C_2  and  O_1 
REMARK    2  A    between atoms: C_3  and  C_2 
ROOT
ATOM      1  C   UNL d   1       0.766  -1.306  29.775  0.00  0.00     0.213 C 
ATOM      2  O   UNL d   1       1.284  -1.173  28.687  0.00  0.00    -0.644 OA
ENDROOT
BRANCH   1   3
ATOM      3  C   UNL d   1       1.549  -1.627  31.044  0.00  0.00     0.218 C 
ATOM      4  C   UNL d   1       1.849  -0.483  31.960  0.00  0.00     0.103 C 
ATOM      5  O   UNL d   1       1.882  -2.794  31.228  0.00  0.00    -0.286 OA
ENDBRANCH   1   3
BRANCH   1   6
ATOM      6  O   UNL d   1      -0.549  -1.197  30.048  0.00  0.00    -0.771 OA
ATOM      7  H   UNL d   1      -1.056  -1.212  29.202  0.00  0.00     0.168 HD
ENDBRANCH   1   6
TORSDOF 2
ENDMDL
MODEL 9
REMARK VINA RESULT:      -3.1     16.285     16.918
REMARK  2 active torsions:
REMARK  status: ('A' for Active; 'I' for Inactive)
REMARK    1  A    between atoms: C_2  and  O_1 
REMARK    2  A    between atoms: C_3  and  C_2 
ROOT
ATOM      1  C   UNL d   1     -12.842 -21.614  32.063  0.00  0.00     0.213 C 
ATOM      2  O   UNL d   1     -12.424 -22.383  31.224  0.00  0.00    -0.644 OA
ENDROOT
BRANCH   1   3
ATOM      3  C   UNL d   1     -13.157 -22.026  33.497  0.00  0.00     0.218 C 
ATOM      4  C   UNL d   1     -13.437 -23.476  33.737  0.00  0.00     0.103 C 
ATOM      5  O   UNL d   1     -13.162 -21.147  34.355  0.00  0.00    -0.286 OA
ENDBRANCH   1   3
BRANCH   1   6
ATOM      6  O   UNL d   1     -13.092 -20.302  31.884  0.00  0.00    -0.771 OA
ATOM      7  H   UNL d   1     -14.042 -20.185  31.643  0.00  0.00     0.168 HD
ENDBRANCH   1   6
TORSDOF 2
ENDMDL
