MODEL 1
REMARK VINA RESULT:      -2.9      0.000      0.000
REMARK  2 active torsions:
REMARK  status: ('A' for Active; 'I' for Inactive)
REMARK    1  A    between atoms: O_1  and  C_2 
REMARK    2  A    between atoms: C_2  and  C_3 
ROOT
ATOM      1  C   UNL d   1     -36.954  36.256  18.673  0.00  0.00     0.055 A 
ATOM      2  C   UNL d   1     -36.963  35.628  19.922  0.00  0.00     0.021 A 
ATOM      3  C   UNL d   1     -36.375  37.514  18.576  0.00  0.00     0.134 A 
ATOM      4  C   UNL d   1     -36.422  36.295  21.020  0.00  0.00     0.020 A 
ATOM      5  N   UNL d   1     -35.852  38.183  19.633  0.00  0.00    -0.272 NA
ATOM      6  C   UNL d   1     -35.885  37.558  20.829  0.00  0.00     0.116 A 
ENDROOT
BRANCH   1   7
ATOM      7  C   UNL d   1     -37.489  35.632  17.448  0.00  0.00     0.177 C 
ATOM      8  O   UNL d   1     -37.007  35.827  16.346  0.00  0.00    -0.646 OA
BRANCH   7   9
ATOM      9  O   UNL d   1     -38.576  34.861  17.653  0.00  0.00    -0.773 OA
ATOM     10  H   UNL d   1     -38.901  34.825  18.572  0.00  0.00     0.167 HD
ENDBRANCH   7   9
ENDBRANCH   1   7
TORSDOF 2
ENDMDL
MODEL 2
REMARK VINA RESULT:      -2.9      2.247      2.662
REMARK  2 active torsions:
REMARK  status: ('A' for Active; 'I' for Inactive)
REMARK    1  A    between atoms: O_1  and  C_2 
REMARK    2  A    between atoms: C_2  and  C_3 
ROOT
ATOM      1  C   UNL d   1     -36.827  35.965  19.173  0.00  0.00     0.055 A 
ATOM      2  C   UNL d   1     -36.648  36.082  20.555  0.00  0.00     0.021 A 
ATOM      3  C   UNL d   1     -36.731  34.703  18.604  0.00  0.00     0.134 A 
ATOM      4  C   UNL d   1     -36.351  34.941  21.299  0.00  0.00     0.020 A 
ATOM      5  N   UNL d   1     -36.435  33.583  19.308  0.00  0.00    -0.272 NA
ATOM      6  C   UNL d   1     -36.253  33.727  20.638  0.00  0.00     0.116 A 
ENDROOT
BRANCH   1   7
ATOM      7  C   UNL d   1     -37.157  37.107  18.299  0.00  0.00     0.177 C 
ATOM      8  O   UNL d   1     -36.416  38.064  18.157  0.00  0.00    -0.646 OA
BRANCH   7   9
ATOM      9  O   UNL d   1     -38.364  37.014  17.704  0.00  0.00    -0.773 OA
ATOM     10  H   UNL d   1     -38.812  36.152  17.791  0.00  0.00     0.167 HD
ENDBRANCH   7   9
ENDBRANCH   1   7
TORSDOF 2
ENDMDL
MODEL 3
REMARK VINA RESULT:      -2.5      6.138      7.119
REMARK  2 active torsions:
REMARK  status: ('A' for Active; 'I' for Inactive)
REMARK    1  A    between atoms: O_1  and  C_2 
REMARK    2  A    between atoms: C_2  and  C_3 
ROOT
ATOM      1  C   UNL d   1     -37.140  33.151  24.215  0.00  0.00     0.055 A 
ATOM      2  C   UNL d   1     -38.051  32.289  23.597  0.00  0.00     0.021 A 
ATOM      3  C   UNL d   1     -37.038  33.115  25.599  0.00  0.00     0.134 A 
ATOM      4  C   UNL d   1     -38.839  31.455  24.388  0.00  0.00     0.020 A 
ATOM      5  N   UNL d   1     -37.801  32.318  26.387  0.00  0.00    -0.272 NA
ATOM      6  C   UNL d   1     -38.682  31.506  25.764  0.00  0.00     0.116 A 
ENDROOT
BRANCH   1   7
ATOM      7  C   UNL d   1     -36.251  34.062  23.468  0.00  0.00     0.177 C 
ATOM      8  O   UNL d   1     -35.148  34.384  23.873  0.00  0.00    -0.646 OA
BRANCH   7   9
ATOM      9  O   UNL d   1     -36.784  34.532  22.321  0.00  0.00    -0.773 OA
ATOM     10  H   UNL d   1     -37.675  34.920  22.398  0.00  0.00     0.167 HD
ENDBRANCH   7   9
ENDBRANCH   1   7
TORSDOF 2
ENDMDL
MODEL 4
REMARK VINA RESULT:      -2.4      4.775      5.788
REMARK  2 active torsions:
REMARK  status: ('A' for Active; 'I' for Inactive)
REMARK    1  A    between atoms: O_1  and  C_2 
REMARK    2  A    between atoms: C_2  and  C_3 
ROOT
ATOM      1  C   UNL d   1     -36.820  32.873  22.483  0.00  0.00     0.055 A 
ATOM      2  C   UNL d   1     -36.687  31.763  21.644  0.00  0.00     0.021 A 
ATOM      3  C   UNL d   1     -36.502  34.124  21.972  0.00  0.00     0.134 A 
ATOM      4  C   UNL d   1     -36.214  31.947  20.346  0.00  0.00     0.020 A 
ATOM      5  N   UNL d   1     -36.033  34.324  20.715  0.00  0.00    -0.272 NA
ATOM      6  C   UNL d   1     -35.901  33.232  19.931  0.00  0.00     0.116 A 
ENDROOT
BRANCH   1   7
ATOM      7  C   UNL d   1     -37.323  32.788  23.868  0.00  0.00     0.177 C 
ATOM      8  O   UNL d   1     -37.500  31.726  24.439  0.00  0.00    -0.646 OA
BRANCH   7   9
ATOM      9  O   UNL d   1     -37.602  33.983  24.426  0.00  0.00    -0.773 OA
ATOM     10  H   UNL d   1     -36.889  34.647  24.380  0.00  0.00     0.167 HD
ENDBRANCH   7   9
ENDBRANCH   1   7
TORSDOF 2
ENDMDL
MODEL 5
REMARK VINA RESULT:      -2.0     57.497     58.019
REMARK  2 active torsions:
REMARK  status: ('A' for Active; 'I' for Inactive)
REMARK    1  A    between atoms: O_1  and  C_2 
REMARK    2  A    between atoms: C_2  and  C_3 
ROOT
ATOM      1  C   UNL d   1     -38.420   5.697 -30.374  0.00  0.00     0.055 A 
ATOM      2  C   UNL d   1     -37.124   6.088 -30.723  0.00  0.00     0.021 A 
ATOM      3  C   UNL d   1     -39.398   6.678 -30.280  0.00  0.00     0.134 A 
ATOM      4  C   UNL d   1     -36.856   7.440 -30.933  0.00  0.00     0.020 A 
ATOM      5  N   UNL d   1     -39.157   7.999 -30.472  0.00  0.00    -0.272 NA
ATOM      6  C   UNL d   1     -37.893   8.349 -30.795  0.00  0.00     0.116 A 
ENDROOT
BRANCH   1   7
ATOM      7  C   UNL d   1     -38.809   4.293 -30.143  0.00  0.00     0.177 C 
ATOM      8  O   UNL d   1     -39.967   3.916 -30.181  0.00  0.00    -0.646 OA
BRANCH   7   9
ATOM      9  O   UNL d   1     -37.775   3.477 -29.852  0.00  0.00    -0.773 OA
ATOM     10  H   UNL d   1     -37.795   3.069 -28.967  0.00  0.00     0.167 HD
ENDBRANCH   7   9
ENDBRANCH   1   7
TORSDOF 2
ENDMDL
MODEL 6
REMARK VINA RESULT:      -1.9     57.778     58.610
REMARK  2 active torsions:
REMARK  status: ('A' for Active; 'I' for Inactive)
REMARK    1  A    between atoms: O_1  and  C_2 
REMARK    2  A    between atoms: C_2  and  C_3 
ROOT
ATOM      1  C   UNL d   1     -38.243   5.320 -30.531  0.00  0.00     0.055 A 
ATOM      2  C   UNL d   1     -37.502   6.475 -30.265  0.00  0.00     0.021 A 
ATOM      3  C   UNL d   1     -37.675   4.349 -31.344  0.00  0.00     0.134 A 
ATOM      4  C   UNL d   1     -36.243   6.621 -30.844  0.00  0.00     0.020 A 
ATOM      5  N   UNL d   1     -36.456   4.475 -31.924  0.00  0.00    -0.272 NA
ATOM      6  C   UNL d   1     -35.768   5.606 -31.660  0.00  0.00     0.116 A 
ENDROOT
BRANCH   1   7
ATOM      7  C   UNL d   1     -39.578   5.063 -29.958  0.00  0.00     0.177 C 
ATOM      8  O   UNL d   1     -40.125   5.836 -29.190  0.00  0.00    -0.646 OA
BRANCH   7   9
ATOM      9  O   UNL d   1     -40.119   3.885 -30.329  0.00  0.00    -0.773 OA
ATOM     10  H   UNL d   1     -41.091   3.872 -30.406  0.00  0.00     0.167 HD
ENDBRANCH   7   9
ENDBRANCH   1   7
TORSDOF 2
ENDMDL
MODEL 7
REMARK VINA RESULT:      -1.7     58.038     59.341
REMARK  2 active torsions:
REMARK  status: ('A' for Active; 'I' for Inactive)
REMARK    1  A    between atoms: O_1  and  C_2 
REMARK    2  A    between atoms: C_2  and  C_3 
ROOT
ATOM      1  C   UNL d   1     -36.863   4.678 -31.578  0.00  0.00     0.055 A 
ATOM      2  C   UNL d   1     -37.570   4.159 -30.489  0.00  0.00     0.021 A 
ATOM      3  C   UNL d   1     -36.455   6.003 -31.523  0.00  0.00     0.134 A 
ATOM      4  C   UNL d   1     -37.863   4.993 -29.411  0.00  0.00     0.020 A 
ATOM      5  N   UNL d   1     -36.737   6.833 -30.489  0.00  0.00    -0.272 NA
ATOM      6  C   UNL d   1     -37.432   6.309 -29.457  0.00  0.00     0.116 A 
ENDROOT
BRANCH   1   7
ATOM      7  C   UNL d   1     -36.492   3.876 -32.760  0.00  0.00     0.177 C 
ATOM      8  O   UNL d   1     -37.109   3.927 -33.810  0.00  0.00    -0.646 OA
BRANCH   7   9
ATOM      9  O   UNL d   1     -35.437   3.060 -32.561  0.00  0.00    -0.773 OA
ATOM     10  H   UNL d   1     -34.779   3.370 -31.912  0.00  0.00     0.167 HD
ENDBRANCH   7   9
ENDBRANCH   1   7
TORSDOF 2
ENDMDL
MODEL 8
REMARK VINA RESULT:      -1.7     56.291     57.617
REMARK  2 active torsions:
REMARK  status: ('A' for Active; 'I' for Inactive)
REMARK    1  A    between atoms: O_1  and  C_2 
REMARK    2  A    between atoms: C_2  and  C_3 
ROOT
ATOM      1  C   UNL d   1     -37.124   0.179 -26.260  0.00  0.00     0.055 A 
ATOM      2  C   UNL d   1     -37.837  -0.325 -25.169  0.00  0.00     0.021 A 
ATOM      3  C   UNL d   1     -36.750   1.516 -26.238  0.00  0.00     0.134 A 
ATOM      4  C   UNL d   1     -38.170   0.533 -24.121  0.00  0.00     0.020 A 
ATOM      5  N   UNL d   1     -37.070   2.369 -25.234  0.00  0.00    -0.272 NA
ATOM      6  C   UNL d   1     -37.771   1.858 -24.199  0.00  0.00     0.116 A 
ENDROOT
BRANCH   1   7
ATOM      7  C   UNL d   1     -36.712  -0.647 -27.411  0.00  0.00     0.177 C 
ATOM      8  O   UNL d   1     -37.327  -1.638 -27.764  0.00  0.00    -0.646 OA
BRANCH   7   9
ATOM      9  O   UNL d   1     -35.578  -0.229 -28.010  0.00  0.00    -0.773 OA
ATOM     10  H   UNL d   1     -35.629  -0.116 -28.978  0.00  0.00     0.167 HD
ENDBRANCH   7   9
ENDBRANCH   1   7
TORSDOF 2
ENDMDL
MODEL 9
REMARK VINA RESULT:      -1.2     57.297     58.240
REMARK  2 active torsions:
REMARK  status: ('A' for Active; 'I' for Inactive)
REMARK    1  A    between atoms: O_1  and  C_2 
REMARK    2  A    between atoms: C_2  and  C_3 
ROOT
ATOM      1  C   UNL d   1     -35.469   1.763 -27.565  0.00  0.00     0.055 A 
ATOM      2  C   UNL d   1     -36.740   1.221 -27.350  0.00  0.00     0.021 A 
ATOM      3  C   UNL d   1     -34.401   0.890 -27.719  0.00  0.00     0.134 A 
ATOM      4  C   UNL d   1     -36.882  -0.163 -27.270  0.00  0.00     0.020 A 
ATOM      5  N   UNL d   1     -34.516  -0.459 -27.636  0.00  0.00    -0.272 NA
ATOM      6  C   UNL d   1     -35.753  -0.954 -27.415  0.00  0.00     0.116 A 
ENDROOT
BRANCH   1   7
ATOM      7  C   UNL d   1     -35.214   3.212 -27.679  0.00  0.00     0.177 C 
ATOM      8  O   UNL d   1     -35.635   3.884 -28.604  0.00  0.00    -0.646 OA
BRANCH   7   9
ATOM      9  O   UNL d   1     -34.447   3.715 -26.690  0.00  0.00    -0.773 OA
ATOM     10  H   UNL d   1     -34.680   4.612 -26.389  0.00  0.00     0.167 HD
ENDBRANCH   7   9
ENDBRANCH   1   7
TORSDOF 2
ENDMDL
