MODEL 1
REMARK VINA RESULT:      -5.6      0.000      0.000
REMARK  15 active torsions:
REMARK  status: ('A' for Active; 'I' for Inactive)
REMARK    1  A    between atoms: C_2  and  C_3 
REMARK    2  A    between atoms: C_3  and  C_4 
REMARK    3  A    between atoms: C_4  and  C_5 
REMARK    4  A    between atoms: C_5  and  C_6 
REMARK    5  A    between atoms: C_8  and  C_9 
REMARK    6  A    between atoms: C_9  and  C_10 
REMARK    7  A    between atoms: C_11  and  C_12 
REMARK    8  A    between atoms: C_12  and  C_13 
REMARK    9  A    between atoms: C_14  and  C_15 
REMARK   10  A    between atoms: C_15  and  C_16 
REMARK   11  A    between atoms: C_17  and  C_18 
REMARK   12  A    between atoms: C_18  and  C_19 
REMARK   13  A    between atoms: C_19  and  C_20 
REMARK   14  A    between atoms: C_20  and  C_21 
REMARK   15  A    between atoms: C_21  and  O_23 
ROOT
ATOM      1  C   UNL d   1      -7.482 -35.360 -15.060  0.00  0.00     0.053 C 
ENDROOT
BRANCH   1   2
ATOM      2  C   UNL d   1      -8.119 -35.016 -13.755  0.00  0.00    -0.027 C 
ATOM      3  C   UNL d   1      -7.457 -34.550 -12.687  0.00  0.00    -0.028 C 
BRANCH   3   4
ATOM      4  C   UNL d   1      -5.962 -34.398 -12.585  0.00  0.00     0.061 C 
BRANCH   4   5
ATOM      5  C   UNL d   1      -5.416 -34.567 -11.198  0.00  0.00     0.154 A 
ATOM      6  O   UNL d   1      -6.112 -35.524 -10.388  0.00  0.00    -0.375 OA
ATOM      7  C   UNL d   1      -4.747 -35.834 -10.704  0.00  0.00     0.151 A 
BRANCH   7   8
ATOM      8  C   UNL d   1      -4.604 -37.082 -11.514  0.00  0.00     0.034 C 
BRANCH   8   9
ATOM      9  C   UNL d   1      -5.704 -38.088 -11.193  0.00  0.00     0.002 C 
BRANCH   9  10
ATOM     10  C   UNL d   1      -6.641 -38.251 -12.388  0.00  0.00    -0.000 C 
BRANCH  10  11
ATOM     11  C   UNL d   1      -8.105 -38.227 -11.963  0.00  0.00    -0.005 C 
ATOM     12  C   UNL d   1      -8.986 -38.887 -13.011  0.00  0.00     0.005 C 
ENDBRANCH  10  11
ENDBRANCH   9  10
ENDBRANCH   8   9
ENDBRANCH   7   8
ENDBRANCH   4   5
ENDBRANCH   3   4
ENDBRANCH   1   2
BRANCH   1  13
ATOM     13  C   UNL d   1      -8.145 -36.509 -15.753  0.00  0.00    -0.027 C 
ATOM     14  C   UNL d   1      -8.064 -36.702 -17.080  0.00  0.00    -0.027 C 
BRANCH  14  15
ATOM     15  C   UNL d   1      -7.317 -35.796 -18.015  0.00  0.00     0.053 C 
BRANCH  15  16
ATOM     16  C   UNL d   1      -7.917 -35.777 -19.387  0.00  0.00    -0.027 C 
ATOM     17  C   UNL d   1      -8.255 -34.672 -20.067  0.00  0.00    -0.030 C 
BRANCH  17  18
ATOM     18  C   UNL d   1      -8.160 -33.278 -19.517  0.00  0.00     0.027 C 
BRANCH  18  19
ATOM     19  C   UNL d   1      -9.464 -32.820 -18.879  0.00  0.00     0.014 C 
BRANCH  19  20
ATOM     20  C   UNL d   1      -9.421 -33.073 -17.375  0.00  0.00     0.110 C 
BRANCH  20  21
ATOM     21  C   UNL d   1     -10.566 -33.939 -16.919  0.00  0.00     0.139 C 
ATOM     22  O   UNL d   1     -11.079 -33.917 -15.809  0.00  0.00    -0.650 OA
BRANCH  21  23
ATOM     23  O   UNL d   1     -10.991 -34.777 -17.894  0.00  0.00    -0.776 OA
ATOM     24  H   UNL d   1     -10.894 -35.722 -17.667  0.00  0.00     0.167 HD
ENDBRANCH  21  23
ENDBRANCH  20  21
ENDBRANCH  19  20
ENDBRANCH  18  19
ENDBRANCH  17  18
ENDBRANCH  15  16
ENDBRANCH  14  15
ENDBRANCH   1  13
TORSDOF 15
ENDMDL
MODEL 2
REMARK VINA RESULT:      -5.2      2.121      2.552
REMARK  15 active torsions:
REMARK  status: ('A' for Active; 'I' for Inactive)
REMARK    1  A    between atoms: C_2  and  C_3 
REMARK    2  A    between atoms: C_3  and  C_4 
REMARK    3  A    between atoms: C_4  and  C_5 
REMARK    4  A    between atoms: C_5  and  C_6 
REMARK    5  A    between atoms: C_8  and  C_9 
REMARK    6  A    between atoms: C_9  and  C_10 
REMARK    7  A    between atoms: C_11  and  C_12 
REMARK    8  A    between atoms: C_12  and  C_13 
REMARK    9  A    between atoms: C_14  and  C_15 
REMARK   10  A    between atoms: C_15  and  C_16 
REMARK   11  A    between atoms: C_17  and  C_18 
REMARK   12  A    between atoms: C_18  and  C_19 
REMARK   13  A    between atoms: C_19  and  C_20 
REMARK   14  A    between atoms: C_20  and  C_21 
REMARK   15  A    between atoms: C_21  and  O_23 
ROOT
ATOM      1  C   UNL d   1      -7.272 -35.162 -14.262  0.00  0.00     0.053 C 
ENDROOT
BRANCH   1   2
ATOM      2  C   UNL d   1      -6.559 -33.856 -14.376  0.00  0.00    -0.027 C 
ATOM      3  C   UNL d   1      -5.965 -33.224 -13.355  0.00  0.00    -0.028 C 
BRANCH   3   4
ATOM      4  C   UNL d   1      -6.005 -33.663 -11.914  0.00  0.00     0.061 C 
BRANCH   4   5
ATOM      5  C   UNL d   1      -4.817 -34.467 -11.480  0.00  0.00     0.154 A 
ATOM      6  O   UNL d   1      -4.850 -34.903 -10.113  0.00  0.00    -0.375 OA
ATOM      7  C   UNL d   1      -4.882 -35.936 -11.111  0.00  0.00     0.151 A 
BRANCH   7   8
ATOM      8  C   UNL d   1      -6.141 -36.740 -11.077  0.00  0.00     0.034 C 
BRANCH   8   9
ATOM      9  C   UNL d   1      -5.993 -38.048 -11.848  0.00  0.00     0.002 C 
BRANCH   9  10
ATOM     10  C   UNL d   1      -7.242 -38.909 -11.677  0.00  0.00    -0.000 C 
BRANCH  10  11
ATOM     11  C   UNL d   1      -8.513 -38.129 -12.000  0.00  0.00    -0.005 C 
ATOM     12  C   UNL d   1      -9.123 -38.603 -13.309  0.00  0.00     0.005 C 
ENDBRANCH  10  11
ENDBRANCH   9  10
ENDBRANCH   8   9
ENDBRANCH   7   8
ENDBRANCH   4   5
ENDBRANCH   3   4
ENDBRANCH   1   2
BRANCH   1  13
ATOM     13  C   UNL d   1      -8.662 -35.125 -14.817  0.00  0.00    -0.027 C 
ATOM     14  C   UNL d   1      -9.062 -35.914 -15.828  0.00  0.00    -0.027 C 
BRANCH  14  15
ATOM     15  C   UNL d   1      -8.175 -36.908 -16.517  0.00  0.00     0.053 C 
BRANCH  15  16
ATOM     16  C   UNL d   1      -8.182 -36.740 -18.005  0.00  0.00    -0.027 C 
ATOM     17  C   UNL d   1      -7.509 -35.796 -18.679  0.00  0.00    -0.030 C 
BRANCH  17  18
ATOM     18  C   UNL d   1      -6.708 -34.703 -18.031  0.00  0.00     0.027 C 
BRANCH  18  19
ATOM     19  C   UNL d   1      -7.414 -33.356 -18.091  0.00  0.00     0.014 C 
BRANCH  19  20
ATOM     20  C   UNL d   1      -8.220 -33.251 -19.382  0.00  0.00     0.110 C 
BRANCH  20  21
ATOM     21  C   UNL d   1      -7.431 -32.594 -20.485  0.00  0.00     0.139 C 
ATOM     22  O   UNL d   1      -6.443 -31.890 -20.332  0.00  0.00    -0.650 OA
BRANCH  21  23
ATOM     23  O   UNL d   1      -7.941 -32.869 -21.709  0.00  0.00    -0.776 OA
ATOM     24  H   UNL d   1      -8.903 -32.716 -21.776  0.00  0.00     0.167 HD
ENDBRANCH  21  23
ENDBRANCH  20  21
ENDBRANCH  19  20
ENDBRANCH  18  19
ENDBRANCH  17  18
ENDBRANCH  15  16
ENDBRANCH  14  15
ENDBRANCH   1  13
TORSDOF 15
ENDMDL
MODEL 3
REMARK VINA RESULT:      -5.1     22.605     25.196
REMARK  15 active torsions:
REMARK  status: ('A' for Active; 'I' for Inactive)
REMARK    1  A    between atoms: C_2  and  C_3 
REMARK    2  A    between atoms: C_3  and  C_4 
REMARK    3  A    between atoms: C_4  and  C_5 
REMARK    4  A    between atoms: C_5  and  C_6 
REMARK    5  A    between atoms: C_8  and  C_9 
REMARK    6  A    between atoms: C_9  and  C_10 
REMARK    7  A    between atoms: C_11  and  C_12 
REMARK    8  A    between atoms: C_12  and  C_13 
REMARK    9  A    between atoms: C_14  and  C_15 
REMARK   10  A    between atoms: C_15  and  C_16 
REMARK   11  A    between atoms: C_17  and  C_18 
REMARK   12  A    between atoms: C_18  and  C_19 
REMARK   13  A    between atoms: C_19  and  C_20 
REMARK   14  A    between atoms: C_20  and  C_21 
REMARK   15  A    between atoms: C_21  and  O_23 
ROOT
ATOM      1  C   UNL d   1      13.642 -23.804 -16.002  0.00  0.00     0.053 C 
ENDROOT
BRANCH   1   2
ATOM      2  C   UNL d   1      13.600 -24.620 -17.250  0.00  0.00    -0.027 C 
ATOM      3  C   UNL d   1      14.454 -25.612 -17.538  0.00  0.00    -0.028 C 
BRANCH   3   4
ATOM      4  C   UNL d   1      15.653 -25.999 -16.712  0.00  0.00     0.061 C 
BRANCH   4   5
ATOM      5  C   UNL d   1      16.971 -25.756 -17.385  0.00  0.00     0.154 A 
ATOM      6  O   UNL d   1      17.058 -24.526 -18.118  0.00  0.00    -0.375 OA
ATOM      7  C   UNL d   1      17.931 -24.653 -16.986  0.00  0.00     0.151 A 
BRANCH   7   8
ATOM      8  C   UNL d   1      17.656 -23.642 -15.920  0.00  0.00     0.034 C 
BRANCH   8   9
ATOM      9  C   UNL d   1      17.425 -22.254 -16.510  0.00  0.00     0.002 C 
BRANCH   9  10
ATOM     10  C   UNL d   1      16.409 -21.484 -15.670  0.00  0.00    -0.000 C 
BRANCH  10  11
ATOM     11  C   UNL d   1      16.435 -21.926 -14.210  0.00  0.00    -0.005 C 
ATOM     12  C   UNL d   1      15.205 -21.426 -13.469  0.00  0.00     0.005 C 
ENDBRANCH  10  11
ENDBRANCH   9  10
ENDBRANCH   8   9
ENDBRANCH   7   8
ENDBRANCH   4   5
ENDBRANCH   3   4
ENDBRANCH   1   2
BRANCH   1  13
ATOM     13  C   UNL d   1      12.513 -24.101 -15.065  0.00  0.00    -0.027 C 
ATOM     14  C   UNL d   1      12.703 -24.597 -13.832  0.00  0.00    -0.027 C 
BRANCH  14  15
ATOM     15  C   UNL d   1      14.050 -24.916 -13.255  0.00  0.00     0.053 C 
BRANCH  15  16
ATOM     16  C   UNL d   1      13.988 -26.019 -12.243  0.00  0.00    -0.027 C 
ATOM     17  C   UNL d   1      14.228 -27.314 -12.495  0.00  0.00    -0.030 C 
BRANCH  17  18
ATOM     18  C   UNL d   1      14.516 -27.871 -13.859  0.00  0.00     0.027 C 
BRANCH  18  19
ATOM     19  C   UNL d   1      13.502 -28.928 -14.276  0.00  0.00     0.014 C 
BRANCH  19  20
ATOM     20  C   UNL d   1      12.087 -28.405 -14.049  0.00  0.00     0.110 C 
BRANCH  20  21
ATOM     21  C   UNL d   1      11.178 -29.469 -13.492  0.00  0.00     0.139 C 
ATOM     22  O   UNL d   1      10.845 -30.496 -14.067  0.00  0.00    -0.650 OA
BRANCH  21  23
ATOM     23  O   UNL d   1      10.748 -29.169 -12.243  0.00  0.00    -0.776 OA
ATOM     24  H   UNL d   1      10.074 -29.788 -11.903  0.00  0.00     0.167 HD
ENDBRANCH  21  23
ENDBRANCH  20  21
ENDBRANCH  19  20
ENDBRANCH  18  19
ENDBRANCH  17  18
ENDBRANCH  15  16
ENDBRANCH  14  15
ENDBRANCH   1  13
TORSDOF 15
ENDMDL
MODEL 4
REMARK VINA RESULT:      -5.0     31.128     34.358
REMARK  15 active torsions:
REMARK  status: ('A' for Active; 'I' for Inactive)
REMARK    1  A    between atoms: C_2  and  C_3 
REMARK    2  A    between atoms: C_3  and  C_4 
REMARK    3  A    between atoms: C_4  and  C_5 
REMARK    4  A    between atoms: C_5  and  C_6 
REMARK    5  A    between atoms: C_8  and  C_9 
REMARK    6  A    between atoms: C_9  and  C_10 
REMARK    7  A    between atoms: C_11  and  C_12 
REMARK    8  A    between atoms: C_12  and  C_13 
REMARK    9  A    between atoms: C_14  and  C_15 
REMARK   10  A    between atoms: C_15  and  C_16 
REMARK   11  A    between atoms: C_17  and  C_18 
REMARK   12  A    between atoms: C_18  and  C_19 
REMARK   13  A    between atoms: C_19  and  C_20 
REMARK   14  A    between atoms: C_20  and  C_21 
REMARK   15  A    between atoms: C_21  and  O_23 
ROOT
ATOM      1  C   UNL d   1      -7.625  -1.805 -19.869  0.00  0.00     0.053 C 
ENDROOT
BRANCH   1   2
ATOM      2  C   UNL d   1      -8.140  -0.494 -19.377  0.00  0.00    -0.027 C 
ATOM      3  C   UNL d   1      -7.602   0.696 -19.680  0.00  0.00    -0.028 C 
BRANCH   3   4
ATOM      4  C   UNL d   1      -6.337   0.905 -20.470  0.00  0.00     0.061 C 
BRANCH   4   5
ATOM      5  C   UNL d   1      -6.534   1.610 -21.778  0.00  0.00     0.154 A 
ATOM      6  O   UNL d   1      -5.365   1.687 -22.606  0.00  0.00    -0.375 OA
ATOM      7  C   UNL d   1      -6.463   0.922 -23.127  0.00  0.00     0.151 A 
BRANCH   7   8
ATOM      8  C   UNL d   1      -6.130  -0.522 -23.318  0.00  0.00     0.034 C 
BRANCH   8   9
ATOM      9  C   UNL d   1      -7.265  -1.274 -24.007  0.00  0.00     0.002 C 
BRANCH   9  10
ATOM     10  C   UNL d   1      -8.601  -0.591 -23.724  0.00  0.00    -0.000 C 
BRANCH  10  11
ATOM     11  C   UNL d   1      -9.561  -1.518 -22.985  0.00  0.00    -0.005 C 
ATOM     12  C   UNL d   1      -9.323  -2.969 -23.372  0.00  0.00     0.005 C 
ENDBRANCH  10  11
ENDBRANCH   9  10
ENDBRANCH   8   9
ENDBRANCH   7   8
ENDBRANCH   4   5
ENDBRANCH   3   4
ENDBRANCH   1   2
BRANCH   1  13
ATOM     13  C   UNL d   1      -8.582  -2.934 -19.649  0.00  0.00    -0.027 C 
ATOM     14  C   UNL d   1      -8.179  -4.188 -19.384  0.00  0.00    -0.027 C 
BRANCH  14  15
ATOM     15  C   UNL d   1      -6.741  -4.602 -19.284  0.00  0.00     0.053 C 
BRANCH  15  16
ATOM     16  C   UNL d   1      -6.396  -5.692 -20.253  0.00  0.00    -0.027 C 
ATOM     17  C   UNL d   1      -6.061  -5.506 -21.538  0.00  0.00    -0.030 C 
BRANCH  17  18
ATOM     18  C   UNL d   1      -6.064  -4.172 -22.229  0.00  0.00     0.027 C 
BRANCH  18  19
ATOM     19  C   UNL d   1      -4.845  -3.983 -23.121  0.00  0.00     0.014 C 
BRANCH  19  20
ATOM     20  C   UNL d   1      -4.666  -5.204 -24.018  0.00  0.00     0.110 C 
BRANCH  20  21
ATOM     21  C   UNL d   1      -3.236  -5.676 -24.042  0.00  0.00     0.139 C 
ATOM     22  O   UNL d   1      -2.573  -5.896 -25.047  0.00  0.00    -0.650 OA
BRANCH  21  23
ATOM     23  O   UNL d   1      -2.732  -5.842 -22.796  0.00  0.00    -0.776 OA
ATOM     24  H   UNL d   1      -2.248  -5.062 -22.463  0.00  0.00     0.167 HD
ENDBRANCH  21  23
ENDBRANCH  20  21
ENDBRANCH  19  20
ENDBRANCH  18  19
ENDBRANCH  17  18
ENDBRANCH  15  16
ENDBRANCH  14  15
ENDBRANCH   1  13
TORSDOF 15
ENDMDL
MODEL 5
REMARK VINA RESULT:      -5.0      2.398      2.882
REMARK  15 active torsions:
REMARK  status: ('A' for Active; 'I' for Inactive)
REMARK    1  A    between atoms: C_2  and  C_3 
REMARK    2  A    between atoms: C_3  and  C_4 
REMARK    3  A    between atoms: C_4  and  C_5 
REMARK    4  A    between atoms: C_5  and  C_6 
REMARK    5  A    between atoms: C_8  and  C_9 
REMARK    6  A    between atoms: C_9  and  C_10 
REMARK    7  A    between atoms: C_11  and  C_12 
REMARK    8  A    between atoms: C_12  and  C_13 
REMARK    9  A    between atoms: C_14  and  C_15 
REMARK   10  A    between atoms: C_15  and  C_16 
REMARK   11  A    between atoms: C_17  and  C_18 
REMARK   12  A    between atoms: C_18  and  C_19 
REMARK   13  A    between atoms: C_19  and  C_20 
REMARK   14  A    between atoms: C_20  and  C_21 
REMARK   15  A    between atoms: C_21  and  O_23 
ROOT
ATOM      1  C   UNL d   1      -7.768 -34.993 -13.856  0.00  0.00     0.053 C 
ENDROOT
BRANCH   1   2
ATOM      2  C   UNL d   1      -7.478 -33.536 -13.716  0.00  0.00    -0.027 C 
ATOM      3  C   UNL d   1      -6.882 -32.980 -12.653  0.00  0.00    -0.028 C 
BRANCH   3   4
ATOM      4  C   UNL d   1      -6.504 -33.702 -11.386  0.00  0.00     0.061 C 
BRANCH   4   5
ATOM      5  C   UNL d   1      -5.126 -34.292 -11.398  0.00  0.00     0.154 A 
ATOM      6  O   UNL d   1      -4.702 -34.863 -10.152  0.00  0.00    -0.375 OA
ATOM      7  C   UNL d   1      -4.841 -35.774 -11.253  0.00  0.00     0.151 A 
BRANCH   7   8
ATOM      8  C   UNL d   1      -5.889 -36.814 -11.021  0.00  0.00     0.034 C 
BRANCH   8   9
ATOM      9  C   UNL d   1      -5.548 -38.122 -11.728  0.00  0.00     0.002 C 
BRANCH   9  10
ATOM     10  C   UNL d   1      -6.806 -38.964 -11.922  0.00  0.00    -0.000 C 
BRANCH  10  11
ATOM     11  C   UNL d   1      -7.521 -38.616 -13.223  0.00  0.00    -0.005 C 
ATOM     12  C   UNL d   1      -9.021 -38.830 -13.094  0.00  0.00     0.005 C 
ENDBRANCH  10  11
ENDBRANCH   9  10
ENDBRANCH   8   9
ENDBRANCH   7   8
ENDBRANCH   4   5
ENDBRANCH   3   4
ENDBRANCH   1   2
BRANCH   1  13
ATOM     13  C   UNL d   1      -9.096 -35.271 -14.490  0.00  0.00    -0.027 C 
ATOM     14  C   UNL d   1      -9.232 -36.042 -15.581  0.00  0.00    -0.027 C 
BRANCH  14  15
ATOM     15  C   UNL d   1      -8.087 -36.702 -16.290  0.00  0.00     0.053 C 
BRANCH  15  16
ATOM     16  C   UNL d   1      -8.008 -36.306 -17.733  0.00  0.00    -0.027 C 
ATOM     17  C   UNL d   1      -7.291 -35.280 -18.214  0.00  0.00    -0.030 C 
BRANCH  17  18
ATOM     18  C   UNL d   1      -6.520 -34.313 -17.363  0.00  0.00     0.027 C 
BRANCH  18  19
ATOM     19  C   UNL d   1      -7.154 -32.929 -17.344  0.00  0.00     0.014 C 
BRANCH  19  20
ATOM     20  C   UNL d   1      -6.065 -31.861 -17.385  0.00  0.00     0.110 C 
BRANCH  20  21
ATOM     21  C   UNL d   1      -5.514 -31.568 -16.014  0.00  0.00     0.139 C 
ATOM     22  O   UNL d   1      -4.581 -32.151 -15.480  0.00  0.00    -0.650 OA
BRANCH  21  23
ATOM     23  O   UNL d   1      -6.178 -30.557 -15.403  0.00  0.00    -0.776 OA
ATOM     24  H   UNL d   1      -5.674 -30.140 -14.679  0.00  0.00     0.167 HD
ENDBRANCH  21  23
ENDBRANCH  20  21
ENDBRANCH  19  20
ENDBRANCH  18  19
ENDBRANCH  17  18
ENDBRANCH  15  16
ENDBRANCH  14  15
ENDBRANCH   1  13
TORSDOF 15
ENDMDL
MODEL 6
REMARK VINA RESULT:      -4.9      2.205      4.034
REMARK  15 active torsions:
REMARK  status: ('A' for Active; 'I' for Inactive)
REMARK    1  A    between atoms: C_2  and  C_3 
REMARK    2  A    between atoms: C_3  and  C_4 
REMARK    3  A    between atoms: C_4  and  C_5 
REMARK    4  A    between atoms: C_5  and  C_6 
REMARK    5  A    between atoms: C_8  and  C_9 
REMARK    6  A    between atoms: C_9  and  C_10 
REMARK    7  A    between atoms: C_11  and  C_12 
REMARK    8  A    between atoms: C_12  and  C_13 
REMARK    9  A    between atoms: C_14  and  C_15 
REMARK   10  A    between atoms: C_15  and  C_16 
REMARK   11  A    between atoms: C_17  and  C_18 
REMARK   12  A    between atoms: C_18  and  C_19 
REMARK   13  A    between atoms: C_19  and  C_20 
REMARK   14  A    between atoms: C_20  and  C_21 
REMARK   15  A    between atoms: C_21  and  O_23 
ROOT
ATOM      1  C   UNL d   1      -7.555 -36.095 -18.399  0.00  0.00     0.053 C 
ENDROOT
BRANCH   1   2
ATOM      2  C   UNL d   1      -8.183 -36.958 -17.356  0.00  0.00    -0.027 C 
ATOM      3  C   UNL d   1      -8.185 -36.685 -16.044  0.00  0.00    -0.028 C 
BRANCH   3   4
ATOM      4  C   UNL d   1      -7.469 -35.531 -15.392  0.00  0.00     0.061 C 
BRANCH   4   5
ATOM      5  C   UNL d   1      -7.790 -35.345 -13.940  0.00  0.00     0.154 A 
ATOM      6  O   UNL d   1      -6.757 -35.759 -13.035  0.00  0.00    -0.375 OA
ATOM      7  C   UNL d   1      -7.075 -34.359 -13.037  0.00  0.00     0.151 A 
BRANCH   7   8
ATOM      8  C   UNL d   1      -5.930 -33.501 -13.467  0.00  0.00     0.034 C 
BRANCH   8   9
ATOM      9  C   UNL d   1      -6.251 -32.018 -13.314  0.00  0.00     0.002 C 
BRANCH   9  10
ATOM     10  C   UNL d   1      -7.690 -31.740 -13.743  0.00  0.00    -0.000 C 
BRANCH  10  11
ATOM     11  C   UNL d   1      -8.348 -30.688 -12.856  0.00  0.00    -0.005 C 
ATOM     12  C   UNL d   1      -9.473 -31.297 -12.034  0.00  0.00     0.005 C 
ENDBRANCH  10  11
ENDBRANCH   9  10
ENDBRANCH   8   9
ENDBRANCH   7   8
ENDBRANCH   4   5
ENDBRANCH   3   4
ENDBRANCH   1   2
BRANCH   1  13
ATOM     13  C   UNL d   1      -7.572 -36.711 -19.763  0.00  0.00    -0.027 C 
ATOM     14  C   UNL d   1      -8.285 -36.202 -20.781  0.00  0.00    -0.027 C 
BRANCH  14  15
ATOM     15  C   UNL d   1      -9.143 -34.976 -20.674  0.00  0.00     0.053 C 
BRANCH  15  16
ATOM     16  C   UNL d   1      -8.431 -33.743 -21.138  0.00  0.00    -0.027 C 
ATOM     17  C   UNL d   1      -8.623 -32.510 -20.648  0.00  0.00    -0.030 C 
BRANCH  17  18
ATOM     18  C   UNL d   1      -9.651 -32.162 -19.609  0.00  0.00     0.027 C 
BRANCH  18  19
ATOM     19  C   UNL d   1      -9.027 -31.887 -18.249  0.00  0.00     0.014 C 
BRANCH  19  20
ATOM     20  C   UNL d   1      -9.219 -33.096 -17.338  0.00  0.00     0.110 C 
BRANCH  20  21
ATOM     21  C   UNL d   1     -10.670 -33.485 -17.221  0.00  0.00     0.139 C 
ATOM     22  O   UNL d   1     -11.560 -32.789 -16.753  0.00  0.00    -0.650 OA
BRANCH  21  23
ATOM     23  O   UNL d   1     -10.904 -34.728 -17.703  0.00  0.00    -0.776 OA
ATOM     24  H   UNL d   1     -11.853 -34.944 -17.783  0.00  0.00     0.167 HD
ENDBRANCH  21  23
ENDBRANCH  20  21
ENDBRANCH  19  20
ENDBRANCH  18  19
ENDBRANCH  17  18
ENDBRANCH  15  16
ENDBRANCH  14  15
ENDBRANCH   1  13
TORSDOF 15
ENDMDL
MODEL 7
REMARK VINA RESULT:      -4.8     49.777     51.793
REMARK  15 active torsions:
REMARK  status: ('A' for Active; 'I' for Inactive)
REMARK    1  A    between atoms: C_2  and  C_3 
REMARK    2  A    between atoms: C_3  and  C_4 
REMARK    3  A    between atoms: C_4  and  C_5 
REMARK    4  A    between atoms: C_5  and  C_6 
REMARK    5  A    between atoms: C_8  and  C_9 
REMARK    6  A    between atoms: C_9  and  C_10 
REMARK    7  A    between atoms: C_11  and  C_12 
REMARK    8  A    between atoms: C_12  and  C_13 
REMARK    9  A    between atoms: C_14  and  C_15 
REMARK   10  A    between atoms: C_15  and  C_16 
REMARK   11  A    between atoms: C_17  and  C_18 
REMARK   12  A    between atoms: C_18  and  C_19 
REMARK   13  A    between atoms: C_19  and  C_20 
REMARK   14  A    between atoms: C_20  and  C_21 
REMARK   15  A    between atoms: C_21  and  O_23 
ROOT
ATOM      1  C   UNL d   1      27.505  -1.013 -24.835  0.00  0.00     0.053 C 
ENDROOT
BRANCH   1   2
ATOM      2  C   UNL d   1      27.930  -2.000 -25.869  0.00  0.00    -0.027 C 
ATOM      3  C   UNL d   1      27.114  -2.539 -26.785  0.00  0.00    -0.028 C 
BRANCH   3   4
ATOM      4  C   UNL d   1      25.625  -2.327 -26.860  0.00  0.00     0.061 C 
BRANCH   4   5
ATOM      5  C   UNL d   1      25.185  -1.415 -27.966  0.00  0.00     0.154 A 
ATOM      6  O   UNL d   1      23.794  -1.063 -27.943  0.00  0.00    -0.375 OA
ATOM      7  C   UNL d   1      24.725   0.013 -27.750  0.00  0.00     0.151 A 
BRANCH   7   8
ATOM      8  C   UNL d   1      24.597   0.662 -26.410  0.00  0.00     0.034 C 
BRANCH   8   9
ATOM      9  C   UNL d   1      25.534   1.859 -26.274  0.00  0.00     0.002 C 
BRANCH   9  10
ATOM     10  C   UNL d   1      25.213   2.642 -25.004  0.00  0.00    -0.000 C 
BRANCH  10  11
ATOM     11  C   UNL d   1      26.378   3.531 -24.581  0.00  0.00    -0.005 C 
ATOM     12  C   UNL d   1      25.979   4.998 -24.605  0.00  0.00     0.005 C 
ENDBRANCH  10  11
ENDBRANCH   9  10
ENDBRANCH   8   9
ENDBRANCH   7   8
ENDBRANCH   4   5
ENDBRANCH   3   4
ENDBRANCH   1   2
BRANCH   1  13
ATOM     13  C   UNL d   1      28.624  -0.576 -23.941  0.00  0.00    -0.027 C 
ATOM     14  C   UNL d   1      29.362   0.520 -24.183  0.00  0.00    -0.027 C 
BRANCH  14  15
ATOM     15  C   UNL d   1      29.161   1.422 -25.365  0.00  0.00     0.053 C 
BRANCH  15  16
ATOM     16  C   UNL d   1      30.143   1.148 -26.462  0.00  0.00    -0.027 C 
ATOM     17  C   UNL d   1      29.825   0.771 -27.709  0.00  0.00    -0.030 C 
BRANCH  17  18
ATOM     18  C   UNL d   1      28.427   0.482 -28.175  0.00  0.00     0.027 C 
BRANCH  18  19
ATOM     19  C   UNL d   1      28.360   0.222 -29.673  0.00  0.00     0.014 C 
BRANCH  19  20
ATOM     20  C   UNL d   1      28.200  -1.273 -29.932  0.00  0.00     0.110 C 
BRANCH  20  21
ATOM     21  C   UNL d   1      29.512  -1.925 -30.282  0.00  0.00     0.139 C 
ATOM     22  O   UNL d   1      29.985  -2.019 -31.406  0.00  0.00    -0.650 OA
BRANCH  21  23
ATOM     23  O   UNL d   1      30.144  -2.417 -29.190  0.00  0.00    -0.776 OA
ATOM     24  H   UNL d   1      29.901  -1.963 -28.360  0.00  0.00     0.167 HD
ENDBRANCH  21  23
ENDBRANCH  20  21
ENDBRANCH  19  20
ENDBRANCH  18  19
ENDBRANCH  17  18
ENDBRANCH  15  16
ENDBRANCH  14  15
ENDBRANCH   1  13
TORSDOF 15
ENDMDL
MODEL 8
REMARK VINA RESULT:      -4.8     24.280     26.661
REMARK  15 active torsions:
REMARK  status: ('A' for Active; 'I' for Inactive)
REMARK    1  A    between atoms: C_2  and  C_3 
REMARK    2  A    between atoms: C_3  and  C_4 
REMARK    3  A    between atoms: C_4  and  C_5 
REMARK    4  A    between atoms: C_5  and  C_6 
REMARK    5  A    between atoms: C_8  and  C_9 
REMARK    6  A    between atoms: C_9  and  C_10 
REMARK    7  A    between atoms: C_11  and  C_12 
REMARK    8  A    between atoms: C_12  and  C_13 
REMARK    9  A    between atoms: C_14  and  C_15 
REMARK   10  A    between atoms: C_15  and  C_16 
REMARK   11  A    between atoms: C_17  and  C_18 
REMARK   12  A    between atoms: C_18  and  C_19 
REMARK   13  A    between atoms: C_19  and  C_20 
REMARK   14  A    between atoms: C_20  and  C_21 
REMARK   15  A    between atoms: C_21  and  O_23 
ROOT
ATOM      1  C   UNL d   1      12.823 -24.081 -15.121  0.00  0.00     0.053 C 
ENDROOT
BRANCH   1   2
ATOM      2  C   UNL d   1      12.335 -23.811 -16.504  0.00  0.00    -0.027 C 
ATOM      3  C   UNL d   1      13.118 -23.768 -17.591  0.00  0.00    -0.028 C 
BRANCH   3   4
ATOM      4  C   UNL d   1      14.621 -23.876 -17.589  0.00  0.00     0.061 C 
BRANCH   4   5
ATOM      5  C   UNL d   1      15.145 -25.208 -18.035  0.00  0.00     0.154 A 
ATOM      6  O   UNL d   1      16.575 -25.299 -18.115  0.00  0.00    -0.375 OA
ATOM      7  C   UNL d   1      15.938 -26.144 -17.145  0.00  0.00     0.151 A 
BRANCH   7   8
ATOM      8  C   UNL d   1      16.342 -25.829 -15.741  0.00  0.00     0.034 C 
BRANCH   8   9
ATOM      9  C   UNL d   1      17.286 -26.887 -15.178  0.00  0.00     0.002 C 
BRANCH   9  10
ATOM     10  C   UNL d   1      18.711 -26.641 -15.666  0.00  0.00    -0.000 C 
BRANCH  10  11
ATOM     11  C   UNL d   1      19.225 -27.802 -16.513  0.00  0.00    -0.005 C 
ATOM     12  C   UNL d   1      19.363 -29.064 -15.677  0.00  0.00     0.005 C 
ENDBRANCH  10  11
ENDBRANCH   9  10
ENDBRANCH   8   9
ENDBRANCH   7   8
ENDBRANCH   4   5
ENDBRANCH   3   4
ENDBRANCH   1   2
BRANCH   1  13
ATOM     13  C   UNL d   1      11.733 -24.051 -14.095  0.00  0.00    -0.027 C 
ATOM     14  C   UNL d   1      11.627 -23.078 -13.175  0.00  0.00    -0.027 C 
BRANCH  14  15
ATOM     15  C   UNL d   1      12.580 -21.925 -13.061  0.00  0.00     0.053 C 
BRANCH  15  16
ATOM     16  C   UNL d   1      13.650 -22.171 -12.043  0.00  0.00    -0.027 C 
ATOM     17  C   UNL d   1      14.944 -21.849 -12.187  0.00  0.00    -0.030 C 
BRANCH  17  18
ATOM     18  C   UNL d   1      15.536 -21.264 -13.438  0.00  0.00     0.027 C 
BRANCH  18  19
ATOM     19  C   UNL d   1      16.127 -22.330 -14.349  0.00  0.00     0.014 C 
BRANCH  19  20
ATOM     20  C   UNL d   1      16.683 -21.680 -15.613  0.00  0.00     0.110 C 
BRANCH  20  21
ATOM     21  C   UNL d   1      17.851 -22.449 -16.171  0.00  0.00     0.139 C 
ATOM     22  O   UNL d   1      18.163 -22.514 -17.352  0.00  0.00    -0.650 OA
BRANCH  21  23
ATOM     23  O   UNL d   1      18.551 -23.087 -15.204  0.00  0.00    -0.776 OA
ATOM     24  H   UNL d   1      18.103 -23.092 -14.336  0.00  0.00     0.167 HD
ENDBRANCH  21  23
ENDBRANCH  20  21
ENDBRANCH  19  20
ENDBRANCH  18  19
ENDBRANCH  17  18
ENDBRANCH  15  16
ENDBRANCH  14  15
ENDBRANCH   1  13
TORSDOF 15
ENDMDL
MODEL 9
REMARK VINA RESULT:      -4.8     31.840     35.113
REMARK  15 active torsions:
REMARK  status: ('A' for Active; 'I' for Inactive)
REMARK    1  A    between atoms: C_2  and  C_3 
REMARK    2  A    between atoms: C_3  and  C_4 
REMARK    3  A    between atoms: C_4  and  C_5 
REMARK    4  A    between atoms: C_5  and  C_6 
REMARK    5  A    between atoms: C_8  and  C_9 
REMARK    6  A    between atoms: C_9  and  C_10 
REMARK    7  A    between atoms: C_11  and  C_12 
REMARK    8  A    between atoms: C_12  and  C_13 
REMARK    9  A    between atoms: C_14  and  C_15 
REMARK   10  A    between atoms: C_15  and  C_16 
REMARK   11  A    between atoms: C_17  and  C_18 
REMARK   12  A    between atoms: C_18  and  C_19 
REMARK   13  A    between atoms: C_19  and  C_20 
REMARK   14  A    between atoms: C_20  and  C_21 
REMARK   15  A    between atoms: C_21  and  O_23 
ROOT
ATOM      1  C   UNL d   1      -6.443   1.504 -21.965  0.00  0.00     0.053 C 
ENDROOT
BRANCH   1   2
ATOM      2  C   UNL d   1      -5.980   1.847 -20.588  0.00  0.00    -0.027 C 
ATOM      3  C   UNL d   1      -6.355   1.199 -19.477  0.00  0.00    -0.028 C 
BRANCH   3   4
ATOM      4  C   UNL d   1      -7.379   0.095 -19.414  0.00  0.00     0.061 C 
BRANCH   4   5
ATOM      5  C   UNL d   1      -8.783   0.568 -19.184  0.00  0.00     0.154 A 
ATOM      6  O   UNL d   1      -9.266   1.520 -20.142  0.00  0.00    -0.375 OA
ATOM      7  C   UNL d   1      -9.942   0.253 -20.109  0.00  0.00     0.151 A 
BRANCH   7   8
ATOM      8  C   UNL d   1      -9.814  -0.509 -21.388  0.00  0.00     0.034 C 
BRANCH   8   9
ATOM      9  C   UNL d   1      -9.964   0.402 -22.602  0.00  0.00     0.002 C 
BRANCH   9  10
ATOM     10  C   UNL d   1     -10.597  -0.361 -23.763  0.00  0.00    -0.000 C 
BRANCH  10  11
ATOM     11  C   UNL d   1     -10.067  -1.788 -23.855  0.00  0.00    -0.005 C 
ATOM     12  C   UNL d   1      -9.027  -1.912 -24.956  0.00  0.00     0.005 C 
ENDBRANCH  10  11
ENDBRANCH   9  10
ENDBRANCH   8   9
ENDBRANCH   7   8
ENDBRANCH   4   5
ENDBRANCH   3   4
ENDBRANCH   1   2
BRANCH   1  13
ATOM     13  C   UNL d   1      -5.369   0.899 -22.814  0.00  0.00    -0.027 C 
ATOM     14  C   UNL d   1      -5.341  -0.406 -23.129  0.00  0.00    -0.027 C 
BRANCH  14  15
ATOM     15  C   UNL d   1      -6.363  -1.402 -22.667  0.00  0.00     0.053 C 
BRANCH  15  16
ATOM     16  C   UNL d   1      -5.823  -2.799 -22.641  0.00  0.00    -0.027 C 
ATOM     17  C   UNL d   1      -6.139  -3.733 -21.732  0.00  0.00    -0.030 C 
BRANCH  17  18
ATOM     18  C   UNL d   1      -7.025  -3.492 -20.543  0.00  0.00     0.027 C 
BRANCH  18  19
ATOM     19  C   UNL d   1      -8.485  -3.804 -20.839  0.00  0.00     0.014 C 
BRANCH  19  20
ATOM     20  C   UNL d   1      -8.780  -5.262 -20.503  0.00  0.00     0.110 C 
BRANCH  20  21
ATOM     21  C   UNL d   1      -9.342  -5.416 -19.114  0.00  0.00     0.139 C 
ATOM     22  O   UNL d   1      -8.717  -5.785 -18.129  0.00  0.00    -0.650 OA
BRANCH  21  23
ATOM     23  O   UNL d   1     -10.655  -5.092 -19.057  0.00  0.00    -0.776 OA
ATOM     24  H   UNL d   1     -11.249  -5.867 -19.058  0.00  0.00     0.167 HD
ENDBRANCH  21  23
ENDBRANCH  20  21
ENDBRANCH  19  20
ENDBRANCH  18  19
ENDBRANCH  17  18
ENDBRANCH  15  16
ENDBRANCH  14  15
ENDBRANCH   1  13
TORSDOF 15
ENDMDL
