MODEL 1
REMARK VINA RESULT:      -4.7      0.000      0.000
REMARK  3 active torsions:
REMARK  status: ('A' for Active; 'I' for Inactive)
REMARK    1  A    between atoms: C_2  and  O_1 
REMARK    2  A    between atoms: C_8  and  C_7 
REMARK    3  A    between atoms: O_10  and  C_8 
ROOT
ATOM      1  C   UNL d   1      39.144  -9.469  -0.324  0.00  0.00     0.065 A 
ATOM      2  C   UNL d   1      37.925  -9.018  -0.823  0.00  0.00     0.037 A 
ATOM      3  C   UNL d   1      39.404 -10.829  -0.193  0.00  0.00     0.037 A 
ATOM      4  C   UNL d   1      36.951  -9.951  -1.188  0.00  0.00     0.021 A 
ATOM      5  C   UNL d   1      38.431 -11.765  -0.562  0.00  0.00     0.021 A 
ATOM      6  C   UNL d   1      37.193 -11.325  -1.050  0.00  0.00     0.037 A 
ENDROOT
BRANCH   6   7
ATOM      7  C   UNL d   1      36.125 -12.262  -1.489  0.00  0.00     0.176 C 
ATOM      8  O   UNL d   1      36.145 -13.452  -1.217  0.00  0.00    -0.646 OA
BRANCH   7   9
ATOM      9  O   UNL d   1      35.159 -11.700  -2.245  0.00  0.00    -0.773 OA
ATOM     10  H   UNL d   1      35.444 -11.376  -3.118  0.00  0.00     0.167 HD
ENDBRANCH   7   9
ENDBRANCH   6   7
BRANCH   1  11
ATOM     11  O   UNL d   1      40.125  -8.598   0.045  0.00  0.00    -0.361 OA
ATOM     12  H   UNL d   1      40.269  -8.672   1.003  0.00  0.00     0.217 HD
ENDBRANCH   1  11
TORSDOF 3
ENDMDL
MODEL 2
REMARK VINA RESULT:      -4.4     14.349     15.172
REMARK  3 active torsions:
REMARK  status: ('A' for Active; 'I' for Inactive)
REMARK    1  A    between atoms: C_2  and  O_1 
REMARK    2  A    between atoms: C_8  and  C_7 
REMARK    3  A    between atoms: O_10  and  C_8 
ROOT
ATOM      1  C   UNL d   1      24.846 -16.383  -6.762  0.00  0.00     0.065 A 
ATOM      2  C   UNL d   1      23.705 -16.604  -5.994  0.00  0.00     0.037 A 
ATOM      3  C   UNL d   1      26.082 -16.880  -6.365  0.00  0.00     0.037 A 
ATOM      4  C   UNL d   1      23.815 -17.328  -4.805  0.00  0.00     0.021 A 
ATOM      5  C   UNL d   1      26.193 -17.610  -5.177  0.00  0.00     0.021 A 
ATOM      6  C   UNL d   1      25.057 -17.825  -4.385  0.00  0.00     0.037 A 
ENDROOT
BRANCH   6   7
ATOM      7  C   UNL d   1      25.095 -18.616  -3.126  0.00  0.00     0.176 C 
ATOM      8  O   UNL d   1      24.311 -18.427  -2.209  0.00  0.00    -0.646 OA
BRANCH   7   9
ATOM      9  O   UNL d   1      26.090 -19.525  -3.063  0.00  0.00    -0.773 OA
ATOM     10  H   UNL d   1      26.298 -19.979  -3.898  0.00  0.00     0.167 HD
ENDBRANCH   7   9
ENDBRANCH   6   7
BRANCH   1  11
ATOM     11  O   UNL d   1      24.789 -15.682  -7.930  0.00  0.00    -0.361 OA
ATOM     12  H   UNL d   1      25.377 -16.104  -8.579  0.00  0.00     0.217 HD
ENDBRANCH   1  11
TORSDOF 3
ENDMDL
MODEL 3
REMARK VINA RESULT:      -4.2      2.316      4.043
REMARK  3 active torsions:
REMARK  status: ('A' for Active; 'I' for Inactive)
REMARK    1  A    between atoms: C_2  and  O_1 
REMARK    2  A    between atoms: C_8  and  C_7 
REMARK    3  A    between atoms: O_10  and  C_8 
ROOT
ATOM      1  C   UNL d   1      36.835 -11.555  -1.596  0.00  0.00     0.065 A 
ATOM      2  C   UNL d   1      36.380 -12.326  -0.529  0.00  0.00     0.037 A 
ATOM      3  C   UNL d   1      38.085 -10.949  -1.557  0.00  0.00     0.037 A 
ATOM      4  C   UNL d   1      37.194 -12.481   0.595  0.00  0.00     0.021 A 
ATOM      5  C   UNL d   1      38.905 -11.106  -0.434  0.00  0.00     0.021 A 
ATOM      6  C   UNL d   1      38.452 -11.865   0.654  0.00  0.00     0.037 A 
ENDROOT
BRANCH   6   7
ATOM      7  C   UNL d   1      39.280 -12.100   1.867  0.00  0.00     0.176 C 
ATOM      8  O   UNL d   1      39.853 -13.157   2.075  0.00  0.00    -0.646 OA
BRANCH   7   9
ATOM      9  O   UNL d   1      39.310 -11.068   2.736  0.00  0.00    -0.773 OA
ATOM     10  H   UNL d   1      39.897 -11.182   3.504  0.00  0.00     0.167 HD
ENDBRANCH   7   9
ENDBRANCH   6   7
BRANCH   1  11
ATOM     11  O   UNL d   1      36.077 -11.375  -2.714  0.00  0.00    -0.361 OA
ATOM     12  H   UNL d   1      36.638 -11.013  -3.420  0.00  0.00     0.217 HD
ENDBRANCH   1  11
TORSDOF 3
ENDMDL
MODEL 4
REMARK VINA RESULT:      -3.9     31.615     32.344
REMARK  3 active torsions:
REMARK  status: ('A' for Active; 'I' for Inactive)
REMARK    1  A    between atoms: C_2  and  O_1 
REMARK    2  A    between atoms: C_8  and  C_7 
REMARK    3  A    between atoms: O_10  and  C_8 
ROOT
ATOM      1  C   UNL d   1      12.436 -21.756 -18.579  0.00  0.00     0.065 A 
ATOM      2  C   UNL d   1      11.727 -21.464 -17.416  0.00  0.00     0.037 A 
ATOM      3  C   UNL d   1      13.219 -22.901 -18.670  0.00  0.00     0.037 A 
ATOM      4  C   UNL d   1      11.816 -22.334 -16.327  0.00  0.00     0.021 A 
ATOM      5  C   UNL d   1      13.306 -23.777 -17.581  0.00  0.00     0.021 A 
ATOM      6  C   UNL d   1      12.612 -23.486 -16.399  0.00  0.00     0.037 A 
ENDROOT
BRANCH   6   7
ATOM      7  C   UNL d   1      12.634 -24.385 -15.215  0.00  0.00     0.176 C 
ATOM      8  O   UNL d   1      13.428 -24.243 -14.299  0.00  0.00    -0.646 OA
BRANCH   7   9
ATOM      9  O   UNL d   1      11.737 -25.392 -15.256  0.00  0.00    -0.773 OA
ATOM     10  H   UNL d   1      11.966 -26.181 -14.734  0.00  0.00     0.167 HD
ENDBRANCH   7   9
ENDBRANCH   6   7
BRANCH   1  11
ATOM     11  O   UNL d   1      12.380 -20.938 -19.668  0.00  0.00    -0.361 OA
ATOM     12  H   UNL d   1      13.271 -20.858 -20.048  0.00  0.00     0.217 HD
ENDBRANCH   1  11
TORSDOF 3
ENDMDL
MODEL 5
REMARK VINA RESULT:      -3.8     22.633     23.905
REMARK  3 active torsions:
REMARK  status: ('A' for Active; 'I' for Inactive)
REMARK    1  A    between atoms: C_2  and  O_1 
REMARK    2  A    between atoms: C_8  and  C_7 
REMARK    3  A    between atoms: O_10  and  C_8 
ROOT
ATOM      1  C   UNL d   1      24.065 -11.686 -21.047  0.00  0.00     0.065 A 
ATOM      2  C   UNL d   1      22.701 -11.495 -21.250  0.00  0.00     0.037 A 
ATOM      3  C   UNL d   1      24.604 -11.682 -19.766  0.00  0.00     0.037 A 
ATOM      4  C   UNL d   1      21.870 -11.289 -20.147  0.00  0.00     0.021 A 
ATOM      5  C   UNL d   1      23.772 -11.481 -18.658  0.00  0.00     0.021 A 
ATOM      6  C   UNL d   1      22.400 -11.270 -18.849  0.00  0.00     0.037 A 
ENDROOT
BRANCH   6   7
ATOM      7  C   UNL d   1      21.453 -11.079 -17.718  0.00  0.00     0.176 C 
ATOM      8  O   UNL d   1      20.595 -10.210 -17.722  0.00  0.00    -0.646 OA
BRANCH   7   9
ATOM      9  O   UNL d   1      21.648 -11.911 -16.675  0.00  0.00    -0.773 OA
ATOM     10  H   UNL d   1      21.761 -11.481 -15.809  0.00  0.00     0.167 HD
ENDBRANCH   7   9
ENDBRANCH   6   7
BRANCH   1  11
ATOM     11  O   UNL d   1      24.916 -11.891 -22.092  0.00  0.00    -0.361 OA
ATOM     12  H   UNL d   1      25.148 -11.032 -22.483  0.00  0.00     0.217 HD
ENDBRANCH   1  11
TORSDOF 3
ENDMDL
MODEL 6
REMARK VINA RESULT:      -3.7     32.991     34.250
REMARK  3 active torsions:
REMARK  status: ('A' for Active; 'I' for Inactive)
REMARK    1  A    between atoms: C_2  and  O_1 
REMARK    2  A    between atoms: C_8  and  C_7 
REMARK    3  A    between atoms: O_10  and  C_8 
ROOT
ATOM      1  C   UNL d   1      37.627 -27.696 -30.882  0.00  0.00     0.065 A 
ATOM      2  C   UNL d   1      37.554 -27.395 -32.239  0.00  0.00     0.037 A 
ATOM      3  C   UNL d   1      37.826 -26.696 -29.937  0.00  0.00     0.037 A 
ATOM      4  C   UNL d   1      37.692 -26.067 -32.650  0.00  0.00     0.021 A 
ATOM      5  C   UNL d   1      37.959 -25.364 -30.346  0.00  0.00     0.021 A 
ATOM      6  C   UNL d   1      37.905 -25.049 -31.710  0.00  0.00     0.037 A 
ENDROOT
BRANCH   6   7
ATOM      7  C   UNL d   1      38.009 -23.653 -32.215  0.00  0.00     0.176 C 
ATOM      8  O   UNL d   1      37.279 -23.217 -33.091  0.00  0.00    -0.646 OA
BRANCH   7   9
ATOM      9  O   UNL d   1      39.001 -22.926 -31.659  0.00  0.00    -0.773 OA
ATOM     10  H   UNL d   1      38.806 -21.982 -31.525  0.00  0.00     0.167 HD
ENDBRANCH   7   9
ENDBRANCH   6   7
BRANCH   1  11
ATOM     11  O   UNL d   1      37.498 -28.977 -30.432  0.00  0.00    -0.361 OA
ATOM     12  H   UNL d   1      38.368 -29.296 -30.136  0.00  0.00     0.217 HD
ENDBRANCH   1  11
TORSDOF 3
ENDMDL
MODEL 7
REMARK VINA RESULT:      -3.7     16.236     17.346
REMARK  3 active torsions:
REMARK  status: ('A' for Active; 'I' for Inactive)
REMARK    1  A    between atoms: C_2  and  O_1 
REMARK    2  A    between atoms: C_8  and  C_7 
REMARK    3  A    between atoms: O_10  and  C_8 
ROOT
ATOM      1  C   UNL d   1      35.416  -2.642  11.680  0.00  0.00     0.065 A 
ATOM      2  C   UNL d   1      34.167  -2.177  12.081  0.00  0.00     0.037 A 
ATOM      3  C   UNL d   1      36.368  -3.030  12.615  0.00  0.00     0.037 A 
ATOM      4  C   UNL d   1      33.876  -2.093  13.445  0.00  0.00     0.021 A 
ATOM      5  C   UNL d   1      36.078  -2.952  13.983  0.00  0.00     0.021 A 
ATOM      6  C   UNL d   1      34.831  -2.469  14.401  0.00  0.00     0.037 A 
ENDROOT
BRANCH   6   7
ATOM      7  C   UNL d   1      34.442  -2.386  15.834  0.00  0.00     0.176 C 
ATOM      8  O   UNL d   1      33.588  -3.107  16.324  0.00  0.00    -0.646 OA
BRANCH   7   9
ATOM      9  O   UNL d   1      35.078  -1.424  16.534  0.00  0.00    -0.773 OA
ATOM     10  H   UNL d   1      35.500  -1.715  17.362  0.00  0.00     0.167 HD
ENDBRANCH   7   9
ENDBRANCH   6   7
BRANCH   1  11
ATOM     11  O   UNL d   1      35.746  -2.742  10.361  0.00  0.00    -0.361 OA
ATOM     12  H   UNL d   1      36.141  -1.902  10.070  0.00  0.00     0.217 HD
ENDBRANCH   1  11
TORSDOF 3
ENDMDL
MODEL 8
REMARK VINA RESULT:      -3.6     31.787     32.513
REMARK  3 active torsions:
REMARK  status: ('A' for Active; 'I' for Inactive)
REMARK    1  A    between atoms: C_2  and  O_1 
REMARK    2  A    between atoms: C_8  and  C_7 
REMARK    3  A    between atoms: O_10  and  C_8 
ROOT
ATOM      1  C   UNL d   1      12.647 -24.087 -15.586  0.00  0.00     0.065 A 
ATOM      2  C   UNL d   1      13.014 -24.372 -16.898  0.00  0.00     0.037 A 
ATOM      3  C   UNL d   1      12.049 -22.875 -15.259  0.00  0.00     0.037 A 
ATOM      4  C   UNL d   1      12.783 -23.420 -17.893  0.00  0.00     0.021 A 
ATOM      5  C   UNL d   1      11.812 -21.921 -16.255  0.00  0.00     0.021 A 
ATOM      6  C   UNL d   1      12.193 -22.188 -17.577  0.00  0.00     0.037 A 
ENDROOT
BRANCH   6   7
ATOM      7  C   UNL d   1      11.945 -21.234 -18.691  0.00  0.00     0.176 C 
ATOM      8  O   UNL d   1      10.901 -20.612 -18.801  0.00  0.00    -0.646 OA
BRANCH   7   9
ATOM      9  O   UNL d   1      12.949 -21.146 -19.589  0.00  0.00    -0.773 OA
ATOM     10  H   UNL d   1      13.628 -20.476 -19.397  0.00  0.00     0.167 HD
ENDBRANCH   7   9
ENDBRANCH   6   7
BRANCH   1  11
ATOM     11  O   UNL d   1      12.852 -24.985 -14.581  0.00  0.00    -0.361 OA
ATOM     12  H   UNL d   1      12.513 -25.852 -14.860  0.00  0.00     0.217 HD
ENDBRANCH   1  11
TORSDOF 3
ENDMDL
MODEL 9
REMARK VINA RESULT:      -3.5     31.662     32.939
REMARK  3 active torsions:
REMARK  status: ('A' for Active; 'I' for Inactive)
REMARK    1  A    between atoms: C_2  and  O_1 
REMARK    2  A    between atoms: C_8  and  C_7 
REMARK    3  A    between atoms: O_10  and  C_8 
ROOT
ATOM      1  C   UNL d   1      11.071 -24.969 -14.191  0.00  0.00     0.065 A 
ATOM      2  C   UNL d   1      10.485 -25.392 -15.381  0.00  0.00     0.037 A 
ATOM      3  C   UNL d   1      12.287 -24.297 -14.193  0.00  0.00     0.037 A 
ATOM      4  C   UNL d   1      11.139 -25.141 -16.589  0.00  0.00     0.021 A 
ATOM      5  C   UNL d   1      12.942 -24.039 -15.402  0.00  0.00     0.021 A 
ATOM      6  C   UNL d   1      12.372 -24.474 -16.606  0.00  0.00     0.037 A 
ENDROOT
BRANCH   6   7
ATOM      7  C   UNL d   1      12.996 -24.210 -17.931  0.00  0.00     0.176 C 
ATOM      8  O   UNL d   1      12.425 -24.448 -18.983  0.00  0.00    -0.646 OA
BRANCH   7   9
ATOM      9  O   UNL d   1      14.256 -23.730 -17.873  0.00  0.00    -0.773 OA
ATOM     10  H   UNL d   1      14.936 -24.281 -18.299  0.00  0.00     0.167 HD
ENDBRANCH   7   9
ENDBRANCH   6   7
BRANCH   1  11
ATOM     11  O   UNL d   1      10.471 -25.191 -12.987  0.00  0.00    -0.361 OA
ATOM     12  H   UNL d   1      10.753 -26.058 -12.649  0.00  0.00     0.217 HD
ENDBRANCH   1  11
TORSDOF 3
ENDMDL
