MODEL 1
REMARK VINA RESULT:      -7.2      0.000      0.000
REMARK WARNING: 32 MAX_TORS EXCEEDED!!!
REMARK  36 active torsions:
REMARK  status: ('A' for Active; 'I' for Inactive)
REMARK    1  A    between atoms: O_1  and  C_2 
REMARK    2  A    between atoms: C_2  and  CA_3 
REMARK    3  A    between atoms: C_5  and  C_7 
REMARK    4  A    between atoms: C_6  and  C_9 
REMARK    5  A    between atoms: C_7  and  C_10 
REMARK    6  A    between atoms: C_8  and  C_11 
REMARK    7  A    between atoms: C_9  and  C_12 
REMARK    8  A    between atoms: C_10  and  O_14 
REMARK    9  A    between atoms: C_11  and  C_15 
REMARK   10  A    between atoms: C_15  and  C_18 
REMARK   11  A    between atoms: C_17  and  C_20 
REMARK   12  A    between atoms: C_18  and  O_23 
REMARK   13  A    between atoms: C_19  and  C_24 
REMARK   14  A    between atoms: C_20  and  C_25 
REMARK   15  A    between atoms: C_21  and  C_26 
REMARK   16  A    between atoms: C_24  and  C_27 
REMARK   17  A    between atoms: C_25  and  O_29 
REMARK   18  A    between atoms: C_26  and  C_30 
REMARK   19  A    between atoms: C_30  and  C_33 
REMARK   20  A    between atoms: C_32  and  C_35 
REMARK   21  A    between atoms: C_33  and  O_38 
REMARK   22  A    between atoms: C_34  and  C_39 
REMARK   23  A    between atoms: C_35  and  C_40 
REMARK   24  A    between atoms: C_36  and  C_41 
REMARK   25  A    between atoms: C_39  and  C_42 
REMARK   26  A    between atoms: C_40  and  O_44 
REMARK   27  A    between atoms: C_41  and  C_45 
REMARK   28  A    between atoms: C_45  and  C_48 
REMARK   29  A    between atoms: C_47  and  C_50 
REMARK   30  A    between atoms: C_48  and  O_53 
REMARK   31  A    between atoms: C_50  and  C_54 
REMARK   32  A    between atoms: C_51  and  C_55 
REMARK   33  A    between atoms: C_54  and  O_57 
REMARK   34  A    between atoms: C_55  and  C_58 
REMARK   35  A    between atoms: C_58  and  C_59 
REMARK   36  A    between atoms: C_59  and  O_61 
ROOT
ATOM      1  C   UNL d   1      17.028   2.390  28.769  0.00  0.00     0.022 C 
ATOM      2  N   UNL d   1      16.787   3.462  29.581  0.00  0.00    -0.361 N 
ATOM      3  C   UNL d   1      16.723   1.244  29.502  0.00  0.00    -0.017 C 
ATOM      4  C   UNL d   1      16.171   3.072  30.743  0.00  0.00     0.022 C 
ATOM      5  C   UNL d   1      16.080   1.679  30.727  0.00  0.00    -0.026 C 
ATOM      6  H   UNL d   1      16.978   4.423  29.329  0.00  0.00     0.165 HD
ENDROOT
BRANCH   4   7
ATOM      7  C   UNL d   1      15.804   4.155  31.726  0.00  0.00     0.115 C 
BRANCH   7   8
ATOM      8  C   UNL d   1      14.822   5.189  31.280  0.00  0.00     0.022 A 
ATOM      9  C   UNL d   1      14.897   6.568  31.134  0.00  0.00    -0.017 A 
ATOM     10  C   UNL d   1      13.547   7.031  30.862  0.00  0.00    -0.026 A 
ATOM     11  C   UNL d   1      12.747   5.901  30.728  0.00  0.00     0.022 A 
ATOM     12  N   UNL d   1      13.547   4.813  30.960  0.00  0.00    -0.361 N 
ATOM     13  H   UNL d   1      13.222   3.855  30.918  0.00  0.00     0.165 HD
BRANCH   9  14
ATOM     14  C   UNL d   1      16.138   7.416  31.312  0.00  0.00     0.151 C 
BRANCH  14  15
ATOM     15  C   UNL d   1      17.095   7.394  30.129  0.00  0.00     0.143 C 
ATOM     16  O   UNL d   1      17.044   8.090  29.126  0.00  0.00    -0.650 OA
BRANCH  15  17
ATOM     17  O   UNL d   1      18.029   6.409  30.255  0.00  0.00    -0.776 OA
ATOM     18  H   UNL d   1      18.957   6.722  30.278  0.00  0.00     0.167 HD
ENDBRANCH  15  17
ENDBRANCH  14  15
ENDBRANCH   9  14
BRANCH  10  19
ATOM     19  C   UNL d   1      13.104   8.465  30.726  0.00  0.00     0.051 C 
BRANCH  19  20
ATOM     20  C   UNL d   1      12.841   8.882  29.276  0.00  0.00     0.114 C 
BRANCH  20  21
ATOM     21  C   UNL d   1      13.996   9.694  28.751  0.00  0.00     0.139 C 
ATOM     22  O   UNL d   1      14.214   9.896  27.566  0.00  0.00    -0.650 OA
BRANCH  21  23
ATOM     23  O   UNL d   1      14.825  10.146  29.718  0.00  0.00    -0.776 OA
ATOM     24  H   UNL d   1      15.105   9.486  30.381  0.00  0.00     0.167 HD
ENDBRANCH  21  23
ENDBRANCH  20  21
ENDBRANCH  19  20
ENDBRANCH  10  19
BRANCH  11  25
ATOM     25  C   UNL d   1      11.283   5.682  30.418  0.00  0.00     0.115 C 
BRANCH  25  26
ATOM     26  C   UNL d   1      11.066   4.669  29.304  0.00  0.00     0.022 A 
ATOM     27  C   UNL d   1      11.529   4.606  27.985  0.00  0.00    -0.018 A 
ATOM     28  C   UNL d   1      10.807   3.522  27.360  0.00  0.00    -0.034 A 
ATOM     29  C   UNL d   1      10.082   2.891  28.347  0.00  0.00     0.095 A 
ATOM     30  N   UNL d   1      10.224   3.596  29.497  0.00  0.00    -0.368 N 
ATOM     31  H   UNL d   1       9.712   3.405  30.350  0.00  0.00     0.165 HD
BRANCH  27  32
ATOM     32  C   UNL d   1      12.451   5.586  27.284  0.00  0.00     0.151 C 
BRANCH  32  33
ATOM     33  C   UNL d   1      13.947   5.454  27.514  0.00  0.00     0.143 C 
ATOM     34  O   UNL d   1      14.692   6.428  27.527  0.00  0.00    -0.650 OA
BRANCH  33  35
ATOM     35  O   UNL d   1      14.423   4.212  27.753  0.00  0.00    -0.776 OA
ATOM     36  H   UNL d   1      14.164   3.861  28.621  0.00  0.00     0.167 HD
ENDBRANCH  33  35
ENDBRANCH  32  33
ENDBRANCH  27  32
BRANCH  28  37
ATOM     37  C   UNL d   1      10.706   3.171  25.903  0.00  0.00     0.051 C 
BRANCH  37  38
ATOM     38  C   UNL d   1       9.768   1.984  25.653  0.00  0.00     0.114 C 
BRANCH  38  39
ATOM     39  C   UNL d   1       8.495   2.328  24.912  0.00  0.00     0.139 C 
ATOM     40  O   UNL d   1       7.407   1.844  25.187  0.00  0.00    -0.650 OA
BRANCH  39  41
ATOM     41  O   UNL d   1       8.625   3.279  23.958  0.00  0.00    -0.776 OA
ATOM     42  H   UNL d   1       9.227   3.015  23.236  0.00  0.00     0.167 HD
ENDBRANCH  39  41
ENDBRANCH  38  39
ENDBRANCH  37  38
ENDBRANCH  28  37
ENDBRANCH  25  26
ENDBRANCH  11  25
ENDBRANCH   7   8
ENDBRANCH   4   7
BRANCH   5  43
ATOM     43  C   UNL d   1      15.367   0.862  31.783  0.00  0.00     0.051 C 
BRANCH  43  44
ATOM     44  C   UNL d   1      13.866   0.987  31.965  0.00  0.00     0.114 C 
BRANCH  44  45
ATOM     45  C   UNL d   1      13.567   1.901  33.134  0.00  0.00     0.139 C 
ATOM     46  O   UNL d   1      14.178   1.905  34.193  0.00  0.00    -0.650 OA
BRANCH  45  47
ATOM     47  O   UNL d   1      12.486   2.685  32.927  0.00  0.00    -0.776 OA
ATOM     48  H   UNL d   1      12.164   2.706  32.004  0.00  0.00     0.167 HD
ENDBRANCH  45  47
ENDBRANCH  44  45
ENDBRANCH  43  44
ENDBRANCH   5  43
BRANCH   3  49
ATOM     49  C   UNL d   1      17.002  -0.166  29.073  0.00  0.00     0.151 C 
BRANCH  49  50
ATOM     50  C   UNL d   1      18.434  -0.546  28.789  0.00  0.00     0.143 C 
ATOM     51  O   UNL d   1      18.719  -1.395  27.956  0.00  0.00    -0.650 OA
BRANCH  50  52
ATOM     52  O   UNL d   1      19.398   0.098  29.485  0.00  0.00    -0.776 OA
ATOM     53  H   UNL d   1      19.165   0.989  29.818  0.00  0.00     0.167 HD
ENDBRANCH  50  52
ENDBRANCH  49  50
ENDBRANCH   3  49
BRANCH   1  54
ATOM     54  C   UNL d   1      17.456   2.628  27.347  0.00  0.00     0.115 C 
BRANCH  54  55
ATOM     55  C   UNL d   1      17.967   4.008  27.044  0.00  0.00     0.022 A 
ATOM     56  C   UNL d   1      19.067   4.737  27.493  0.00  0.00    -0.026 A 
ATOM     57  C   UNL d   1      18.954   6.073  26.928  0.00  0.00    -0.015 A 
ATOM     58  CA  UNL d   1      17.772   6.086  26.193  0.00  0.00     0.040 A 
ATOM     59  N   UNL d   1      17.222   4.834  26.248  0.00  0.00    -0.360 N 
ATOM     60  H   UNL d   1      16.351   4.568  25.804  0.00  0.00     0.165 HD
BRANCH  56  61
ATOM     61  C   UNL d   1      20.156   4.212  28.401  0.00  0.00     0.051 C 
BRANCH  61  62
ATOM     62  C   UNL d   1      20.771   2.864  28.035  0.00  0.00     0.114 C 
BRANCH  62  63
ATOM     63  C   UNL d   1      22.077   2.968  27.297  0.00  0.00     0.139 C 
ATOM     64  O   UNL d   1      22.607   4.033  27.017  0.00  0.00    -0.650 OA
BRANCH  63  65
ATOM     65  O   UNL d   1      22.642   1.780  27.001  0.00  0.00    -0.776 OA
ATOM     66  H   UNL d   1      23.067   1.339  27.763  0.00  0.00     0.167 HD
ENDBRANCH  63  65
ENDBRANCH  62  63
ENDBRANCH  61  62
ENDBRANCH  56  61
BRANCH  57  67
ATOM     67  C   UNL d   1      19.866   7.246  27.219  0.00  0.00     0.151 C 
BRANCH  67  68
ATOM     68  C   UNL d   1      19.553   8.642  26.739  0.00  0.00     0.143 C 
ATOM     69  O   UNL d   1      19.779   8.967  25.577  0.00  0.00    -0.650 OA
BRANCH  68  70
ATOM     70  O   UNL d   1      18.951   9.487  27.588  0.00  0.00    -0.776 OA
ATOM     71  H   UNL d   1      18.364   9.035  28.237  0.00  0.00     0.167 HD
ENDBRANCH  68  70
ENDBRANCH  67  68
ENDBRANCH  57  67
BRANCH  58  72
ATOM     72  C   UNL d   1      17.079   7.144  25.412  0.00  0.00     0.221 C 
BRANCH  72  73
ATOM     73  O   UNL d   1      17.725   7.143  24.154  0.00  0.00    -0.395 OA
ATOM     74  H   UNL d   1      17.628   8.043  23.790  0.00  0.00     0.209 HD
ENDBRANCH  72  73
ENDBRANCH  58  72
ENDBRANCH  54  55
ENDBRANCH   1  54
TORSDOF 36
ENDMDL
MODEL 2
REMARK VINA RESULT:      -6.8      2.403      6.895
REMARK WARNING: 32 MAX_TORS EXCEEDED!!!
REMARK  36 active torsions:
REMARK  status: ('A' for Active; 'I' for Inactive)
REMARK    1  A    between atoms: O_1  and  C_2 
REMARK    2  A    between atoms: C_2  and  CA_3 
REMARK    3  A    between atoms: C_5  and  C_7 
REMARK    4  A    between atoms: C_6  and  C_9 
REMARK    5  A    between atoms: C_7  and  C_10 
REMARK    6  A    between atoms: C_8  and  C_11 
REMARK    7  A    between atoms: C_9  and  C_12 
REMARK    8  A    between atoms: C_10  and  O_14 
REMARK    9  A    between atoms: C_11  and  C_15 
REMARK   10  A    between atoms: C_15  and  C_18 
REMARK   11  A    between atoms: C_17  and  C_20 
REMARK   12  A    between atoms: C_18  and  O_23 
REMARK   13  A    between atoms: C_19  and  C_24 
REMARK   14  A    between atoms: C_20  and  C_25 
REMARK   15  A    between atoms: C_21  and  C_26 
REMARK   16  A    between atoms: C_24  and  C_27 
REMARK   17  A    between atoms: C_25  and  O_29 
REMARK   18  A    between atoms: C_26  and  C_30 
REMARK   19  A    between atoms: C_30  and  C_33 
REMARK   20  A    between atoms: C_32  and  C_35 
REMARK   21  A    between atoms: C_33  and  O_38 
REMARK   22  A    between atoms: C_34  and  C_39 
REMARK   23  A    between atoms: C_35  and  C_40 
REMARK   24  A    between atoms: C_36  and  C_41 
REMARK   25  A    between atoms: C_39  and  C_42 
REMARK   26  A    between atoms: C_40  and  O_44 
REMARK   27  A    between atoms: C_41  and  C_45 
REMARK   28  A    between atoms: C_45  and  C_48 
REMARK   29  A    between atoms: C_47  and  C_50 
REMARK   30  A    between atoms: C_48  and  O_53 
REMARK   31  A    between atoms: C_50  and  C_54 
REMARK   32  A    between atoms: C_51  and  C_55 
REMARK   33  A    between atoms: C_54  and  O_57 
REMARK   34  A    between atoms: C_55  and  C_58 
REMARK   35  A    between atoms: C_58  and  C_59 
REMARK   36  A    between atoms: C_59  and  O_61 
ROOT
ATOM      1  C   UNL d   1      19.617   3.780  28.153  0.00  0.00     0.022 C 
ATOM      2  N   UNL d   1      18.502   4.199  27.483  0.00  0.00    -0.361 N 
ATOM      3  C   UNL d   1      20.711   4.407  27.559  0.00  0.00    -0.017 C 
ATOM      4  C   UNL d   1      18.806   5.204  26.599  0.00  0.00     0.022 C 
ATOM      5  C   UNL d   1      20.189   5.393  26.634  0.00  0.00    -0.026 C 
ATOM      6  H   UNL d   1      17.567   3.859  27.662  0.00  0.00     0.165 HD
ENDROOT
BRANCH   4   7
ATOM      7  C   UNL d   1      17.666   5.798  25.812  0.00  0.00     0.115 C 
BRANCH   7   8
ATOM      8  C   UNL d   1      16.491   6.312  26.579  0.00  0.00     0.022 A 
ATOM      9  C   UNL d   1      16.303   7.415  27.402  0.00  0.00    -0.017 A 
ATOM     10  C   UNL d   1      14.998   7.256  28.019  0.00  0.00    -0.026 A 
ATOM     11  C   UNL d   1      14.408   6.136  27.444  0.00  0.00     0.022 A 
ATOM     12  N   UNL d   1      15.319   5.607  26.567  0.00  0.00    -0.361 N 
ATOM     13  H   UNL d   1      15.146   4.786  26.001  0.00  0.00     0.165 HD
BRANCH   9  14
ATOM     14  C   UNL d   1      17.309   8.516  27.656  0.00  0.00     0.151 C 
BRANCH  14  15
ATOM     15  C   UNL d   1      17.885   8.536  29.065  0.00  0.00     0.143 C 
ATOM     16  O   UNL d   1      17.599   9.309  29.968  0.00  0.00    -0.650 OA
BRANCH  15  17
ATOM     17  O   UNL d   1      18.870   7.607  29.220  0.00  0.00    -0.776 OA
ATOM     18  H   UNL d   1      19.088   7.389  30.150  0.00  0.00     0.167 HD
ENDBRANCH  15  17
ENDBRANCH  14  15
ENDBRANCH   9  14
BRANCH  10  19
ATOM     19  C   UNL d   1      14.390   8.152  29.067  0.00  0.00     0.051 C 
BRANCH  19  20
ATOM     20  C   UNL d   1      13.512   9.261  28.479  0.00  0.00     0.114 C 
BRANCH  20  21
ATOM     21  C   UNL d   1      14.263  10.568  28.469  0.00  0.00     0.139 C 
ATOM     22  O   UNL d   1      14.198  11.392  27.570  0.00  0.00    -0.650 OA
BRANCH  21  23
ATOM     23  O   UNL d   1      15.078  10.732  29.534  0.00  0.00    -0.776 OA
ATOM     24  H   UNL d   1      14.700  10.488  30.401  0.00  0.00     0.167 HD
ENDBRANCH  21  23
ENDBRANCH  20  21
ENDBRANCH  19  20
ENDBRANCH  10  19
BRANCH  11  25
ATOM     25  C   UNL d   1      13.070   5.451  27.611  0.00  0.00     0.115 C 
BRANCH  25  26
ATOM     26  C   UNL d   1      12.738   5.160  29.066  0.00  0.00     0.022 A 
ATOM     27  C   UNL d   1      11.880   5.784  29.979  0.00  0.00    -0.018 A 
ATOM     28  C   UNL d   1      12.160   5.184  31.263  0.00  0.00    -0.034 A 
ATOM     29  C   UNL d   1      13.030   4.138  31.045  0.00  0.00     0.095 A 
ATOM     30  N   UNL d   1      13.387   4.147  29.737  0.00  0.00    -0.368 N 
ATOM     31  H   UNL d   1      14.097   3.547  29.336  0.00  0.00     0.165 HD
BRANCH  27  32
ATOM     32  C   UNL d   1      10.979   6.979  29.730  0.00  0.00     0.151 C 
BRANCH  32  33
ATOM     33  C   UNL d   1       9.493   6.827  30.007  0.00  0.00     0.143 C 
ATOM     34  O   UNL d   1       8.929   7.455  30.896  0.00  0.00    -0.650 OA
BRANCH  33  35
ATOM     35  O   UNL d   1       8.801   5.998  29.195  0.00  0.00    -0.776 OA
ATOM     36  H   UNL d   1       9.368   5.477  28.603  0.00  0.00     0.167 HD
ENDBRANCH  33  35
ENDBRANCH  32  33
ENDBRANCH  27  32
BRANCH  28  37
ATOM     37  C   UNL d   1      11.732   5.636  32.630  0.00  0.00     0.051 C 
BRANCH  37  38
ATOM     38  C   UNL d   1      11.088   4.507  33.444  0.00  0.00     0.114 C 
BRANCH  38  39
ATOM     39  C   UNL d   1      11.894   4.047  34.638  0.00  0.00     0.139 C 
ATOM     40  O   UNL d   1      12.514   2.994  34.664  0.00  0.00    -0.650 OA
BRANCH  39  41
ATOM     41  O   UNL d   1      11.949   4.925  35.666  0.00  0.00    -0.776 OA
ATOM     42  H   UNL d   1      11.134   5.455  35.759  0.00  0.00     0.167 HD
ENDBRANCH  39  41
ENDBRANCH  38  39
ENDBRANCH  37  38
ENDBRANCH  28  37
ENDBRANCH  25  26
ENDBRANCH  11  25
ENDBRANCH   7   8
ENDBRANCH   4   7
BRANCH   5  43
ATOM     43  C   UNL d   1      20.916   6.487  25.879  0.00  0.00     0.051 C 
BRANCH  43  44
ATOM     44  C   UNL d   1      21.064   7.868  26.486  0.00  0.00     0.114 C 
BRANCH  44  45
ATOM     45  C   UNL d   1      20.372   8.889  25.610  0.00  0.00     0.139 C 
ATOM     46  O   UNL d   1      19.547   8.625  24.747  0.00  0.00    -0.650 OA
BRANCH  45  47
ATOM     47  O   UNL d   1      20.812  10.150  25.820  0.00  0.00    -0.776 OA
ATOM     48  H   UNL d   1      20.868  10.415  26.759  0.00  0.00     0.167 HD
ENDBRANCH  45  47
ENDBRANCH  44  45
ENDBRANCH  43  44
ENDBRANCH   5  43
BRANCH   3  49
ATOM     49  C   UNL d   1      22.152   4.109  27.853  0.00  0.00     0.151 C 
BRANCH  49  50
ATOM     50  C   UNL d   1      22.823   3.017  27.058  0.00  0.00     0.143 C 
ATOM     51  O   UNL d   1      22.403   1.868  27.066  0.00  0.00    -0.650 OA
BRANCH  50  52
ATOM     52  O   UNL d   1      23.906   3.357  26.323  0.00  0.00    -0.776 OA
ATOM     53  H   UNL d   1      23.747   3.988  25.591  0.00  0.00     0.167 HD
ENDBRANCH  50  52
ENDBRANCH  49  50
ENDBRANCH   3  49
BRANCH   1  54
ATOM     54  C   UNL d   1      19.460   2.874  29.343  0.00  0.00     0.115 C 
BRANCH  54  55
ATOM     55  C   UNL d   1      18.140   2.165  29.451  0.00  0.00     0.022 A 
ATOM     56  C   UNL d   1      16.997   2.392  30.216  0.00  0.00    -0.026 A 
ATOM     57  C   UNL d   1      16.091   1.279  29.971  0.00  0.00    -0.015 A 
ATOM     58  CA  UNL d   1      16.753   0.424  29.094  0.00  0.00     0.040 A 
ATOM     59  N   UNL d   1      17.957   0.992  28.772  0.00  0.00    -0.360 N 
ATOM     60  H   UNL d   1      18.643   0.574  28.155  0.00  0.00     0.165 HD
BRANCH  56  61
ATOM     61  C   UNL d   1      16.769   3.578  31.123  0.00  0.00     0.051 C 
BRANCH  61  62
ATOM     62  C   UNL d   1      16.681   4.950  30.460  0.00  0.00     0.114 C 
BRANCH  62  63
ATOM     63  C   UNL d   1      16.457   6.082  31.424  0.00  0.00     0.139 C 
ATOM     64  O   UNL d   1      15.367   6.342  31.912  0.00  0.00    -0.650 OA
BRANCH  63  65
ATOM     65  O   UNL d   1      17.573   6.769  31.741  0.00  0.00    -0.776 OA
ATOM     66  H   UNL d   1      17.405   7.670  32.079  0.00  0.00     0.167 HD
ENDBRANCH  63  65
ENDBRANCH  62  63
ENDBRANCH  61  62
ENDBRANCH  56  61
BRANCH  57  67
ATOM     67  C   UNL d   1      14.765   1.039  30.660  0.00  0.00     0.151 C 
BRANCH  67  68
ATOM     68  C   UNL d   1      14.680   0.583  32.096  0.00  0.00     0.143 C 
ATOM     69  O   UNL d   1      14.642   1.404  33.009  0.00  0.00    -0.650 OA
BRANCH  68  70
ATOM     70  O   UNL d   1      14.567  -0.729  32.342  0.00  0.00    -0.776 OA
ATOM     71  H   UNL d   1      14.391  -1.264  31.534  0.00  0.00     0.167 HD
ENDBRANCH  68  70
ENDBRANCH  67  68
ENDBRANCH  57  67
BRANCH  58  72
ATOM     72  C   UNL d   1      16.390  -0.886  28.491  0.00  0.00     0.221 C 
BRANCH  72  73
ATOM     73  O   UNL d   1      16.304  -1.773  29.589  0.00  0.00    -0.395 OA
ATOM     74  H   UNL d   1      17.082  -1.598  30.150  0.00  0.00     0.209 HD
ENDBRANCH  72  73
ENDBRANCH  58  72
ENDBRANCH  54  55
ENDBRANCH   1  54
TORSDOF 36
ENDMDL
MODEL 3
REMARK VINA RESULT:      -6.6      2.563      6.139
REMARK WARNING: 32 MAX_TORS EXCEEDED!!!
REMARK  36 active torsions:
REMARK  status: ('A' for Active; 'I' for Inactive)
REMARK    1  A    between atoms: O_1  and  C_2 
REMARK    2  A    between atoms: C_2  and  CA_3 
REMARK    3  A    between atoms: C_5  and  C_7 
REMARK    4  A    between atoms: C_6  and  C_9 
REMARK    5  A    between atoms: C_7  and  C_10 
REMARK    6  A    between atoms: C_8  and  C_11 
REMARK    7  A    between atoms: C_9  and  C_12 
REMARK    8  A    between atoms: C_10  and  O_14 
REMARK    9  A    between atoms: C_11  and  C_15 
REMARK   10  A    between atoms: C_15  and  C_18 
REMARK   11  A    between atoms: C_17  and  C_20 
REMARK   12  A    between atoms: C_18  and  O_23 
REMARK   13  A    between atoms: C_19  and  C_24 
REMARK   14  A    between atoms: C_20  and  C_25 
REMARK   15  A    between atoms: C_21  and  C_26 
REMARK   16  A    between atoms: C_24  and  C_27 
REMARK   17  A    between atoms: C_25  and  O_29 
REMARK   18  A    between atoms: C_26  and  C_30 
REMARK   19  A    between atoms: C_30  and  C_33 
REMARK   20  A    between atoms: C_32  and  C_35 
REMARK   21  A    between atoms: C_33  and  O_38 
REMARK   22  A    between atoms: C_34  and  C_39 
REMARK   23  A    between atoms: C_35  and  C_40 
REMARK   24  A    between atoms: C_36  and  C_41 
REMARK   25  A    between atoms: C_39  and  C_42 
REMARK   26  A    between atoms: C_40  and  O_44 
REMARK   27  A    between atoms: C_41  and  C_45 
REMARK   28  A    between atoms: C_45  and  C_48 
REMARK   29  A    between atoms: C_47  and  C_50 
REMARK   30  A    between atoms: C_48  and  O_53 
REMARK   31  A    between atoms: C_50  and  C_54 
REMARK   32  A    between atoms: C_51  and  C_55 
REMARK   33  A    between atoms: C_54  and  O_57 
REMARK   34  A    between atoms: C_55  and  C_58 
REMARK   35  A    between atoms: C_58  and  C_59 
REMARK   36  A    between atoms: C_59  and  O_61 
ROOT
ATOM      1  C   UNL d   1      18.290   4.077  29.143  0.00  0.00     0.022 C 
ATOM      2  N   UNL d   1      17.018   4.407  28.766  0.00  0.00    -0.361 N 
ATOM      3  C   UNL d   1      18.284   2.720  29.461  0.00  0.00    -0.017 C 
ATOM      4  C   UNL d   1      16.232   3.288  28.654  0.00  0.00     0.022 C 
ATOM      5  C   UNL d   1      16.997   2.190  29.054  0.00  0.00    -0.026 C 
ATOM      6  H   UNL d   1      16.716   5.344  28.536  0.00  0.00     0.165 HD
ENDROOT
BRANCH   4   7
ATOM      7  C   UNL d   1      14.807   3.489  28.205  0.00  0.00     0.115 C 
BRANCH   7   8
ATOM      8  C   UNL d   1      13.915   4.307  29.081  0.00  0.00     0.022 A 
ATOM      9  C   UNL d   1      13.520   4.189  30.407  0.00  0.00    -0.017 A 
ATOM     10  C   UNL d   1      12.478   5.179  30.621  0.00  0.00    -0.026 A 
ATOM     11  C   UNL d   1      12.385   5.931  29.455  0.00  0.00     0.022 A 
ATOM     12  N   UNL d   1      13.277   5.399  28.561  0.00  0.00    -0.361 N 
ATOM     13  H   UNL d   1      13.424   5.761  27.627  0.00  0.00     0.165 HD
BRANCH   9  14
ATOM     14  C   UNL d   1      14.028   3.166  31.400  0.00  0.00     0.151 C 
BRANCH  14  15
ATOM     15  C   UNL d   1      15.113   3.676  32.337  0.00  0.00     0.143 C 
ATOM     16  O   UNL d   1      16.196   4.150  32.023  0.00  0.00    -0.650 OA
BRANCH  15  17
ATOM     17  O   UNL d   1      14.788   3.471  33.644  0.00  0.00    -0.776 OA
ATOM     18  H   UNL d   1      14.806   4.274  34.204  0.00  0.00     0.167 HD
ENDBRANCH  15  17
ENDBRANCH  14  15
ENDBRANCH   9  14
BRANCH  10  19
ATOM     19  C   UNL d   1      11.669   5.369  31.878  0.00  0.00     0.051 C 
BRANCH  19  20
ATOM     20  C   UNL d   1      10.187   5.027  31.701  0.00  0.00     0.114 C 
BRANCH  20  21
ATOM     21  C   UNL d   1      10.033   3.591  31.271  0.00  0.00     0.139 C 
ATOM     22  O   UNL d   1      10.390   2.631  31.936  0.00  0.00    -0.650 OA
BRANCH  21  23
ATOM     23  O   UNL d   1       9.507   3.450  30.034  0.00  0.00    -0.776 OA
ATOM     24  H   UNL d   1       9.999   2.867  29.425  0.00  0.00     0.167 HD
ENDBRANCH  21  23
ENDBRANCH  20  21
ENDBRANCH  19  20
ENDBRANCH  10  19
BRANCH  11  25
ATOM     25  C   UNL d   1      11.540   7.113  29.031  0.00  0.00     0.115 C 
BRANCH  25  26
ATOM     26  C   UNL d   1      11.937   8.400  29.738  0.00  0.00     0.022 A 
ATOM     27  C   UNL d   1      12.954   9.330  29.497  0.00  0.00    -0.018 A 
ATOM     28  C   UNL d   1      12.958  10.221  30.634  0.00  0.00    -0.034 A 
ATOM     29  C   UNL d   1      11.865   9.898  31.410  0.00  0.00     0.095 A 
ATOM     30  N   UNL d   1      11.278   8.796  30.880  0.00  0.00    -0.368 N 
ATOM     31  H   UNL d   1      10.516   8.291  31.316  0.00  0.00     0.165 HD
BRANCH  27  32
ATOM     32  C   UNL d   1      13.978   9.309  28.378  0.00  0.00     0.151 C 
BRANCH  32  33
ATOM     33  C   UNL d   1      15.320   8.647  28.645  0.00  0.00     0.143 C 
ATOM     34  O   UNL d   1      15.405   7.510  29.098  0.00  0.00    -0.650 OA
BRANCH  33  35
ATOM     35  O   UNL d   1      16.426   9.350  28.317  0.00  0.00    -0.776 OA
ATOM     36  H   UNL d   1      17.164   9.216  28.934  0.00  0.00     0.167 HD
ENDBRANCH  33  35
ENDBRANCH  32  33
ENDBRANCH  27  32
BRANCH  28  37
ATOM     37  C   UNL d   1      13.989  11.236  31.037  0.00  0.00     0.051 C 
BRANCH  37  38
ATOM     38  C   UNL d   1      14.996  10.676  32.049  0.00  0.00     0.114 C 
BRANCH  38  39
ATOM     39  C   UNL d   1      16.393  10.471  31.507  0.00  0.00     0.139 C 
ATOM     40  O   UNL d   1      17.143  11.392  31.220  0.00  0.00    -0.650 OA
BRANCH  39  41
ATOM     41  O   UNL d   1      16.795   9.181  31.431  0.00  0.00    -0.776 OA
ATOM     42  H   UNL d   1      16.427   8.712  30.657  0.00  0.00     0.167 HD
ENDBRANCH  39  41
ENDBRANCH  38  39
ENDBRANCH  37  38
ENDBRANCH  28  37
ENDBRANCH  25  26
ENDBRANCH  11  25
ENDBRANCH   7   8
ENDBRANCH   4   7
BRANCH   5  43
ATOM     43  C   UNL d   1      16.527   0.753  28.976  0.00  0.00     0.051 C 
BRANCH  43  44
ATOM     44  C   UNL d   1      16.867  -0.100  27.769  0.00  0.00     0.114 C 
BRANCH  44  45
ATOM     45  C   UNL d   1      17.486  -1.404  28.223  0.00  0.00     0.139 C 
ATOM     46  O   UNL d   1      16.890  -2.293  28.815  0.00  0.00    -0.650 OA
BRANCH  45  47
ATOM     47  O   UNL d   1      18.814  -1.472  27.976  0.00  0.00    -0.776 OA
ATOM     48  H   UNL d   1      19.356  -1.786  28.726  0.00  0.00     0.167 HD
ENDBRANCH  45  47
ENDBRANCH  44  45
ENDBRANCH  43  44
ENDBRANCH   5  43
BRANCH   3  49
ATOM     49  C   UNL d   1      19.418   1.967  30.092  0.00  0.00     0.151 C 
BRANCH  49  50
ATOM     50  C   UNL d   1      19.236   1.472  31.505  0.00  0.00     0.143 C 
ATOM     51  O   UNL d   1      18.132   1.419  32.029  0.00  0.00    -0.650 OA
BRANCH  50  52
ATOM     52  O   UNL d   1      20.343   1.077  32.174  0.00  0.00    -0.776 OA
ATOM     53  H   UNL d   1      20.191   0.526  32.970  0.00  0.00     0.167 HD
ENDBRANCH  50  52
ENDBRANCH  49  50
ENDBRANCH   3  49
BRANCH   1  54
ATOM     54  C   UNL d   1      19.370   5.121  29.071  0.00  0.00     0.115 C 
BRANCH  54  55
ATOM     55  C   UNL d   1      20.353   4.962  27.946  0.00  0.00     0.022 A 
ATOM     56  C   UNL d   1      20.371   5.408  26.626  0.00  0.00    -0.026 A 
ATOM     57  C   UNL d   1      21.541   4.819  25.991  0.00  0.00    -0.015 A 
ATOM     58  CA  UNL d   1      22.150   4.024  26.958  0.00  0.00     0.040 A 
ATOM     59  N   UNL d   1      21.443   4.153  28.124  0.00  0.00    -0.360 N 
ATOM     60  H   UNL d   1      21.666   3.674  28.988  0.00  0.00     0.165 HD
BRANCH  56  61
ATOM     61  C   UNL d   1      19.349   6.327  25.997  0.00  0.00     0.051 C 
BRANCH  61  62
ATOM     62  C   UNL d   1      17.983   5.726  25.677  0.00  0.00     0.114 C 
BRANCH  62  63
ATOM     63  C   UNL d   1      16.829   6.650  25.956  0.00  0.00     0.139 C 
ATOM     64  O   UNL d   1      16.893   7.862  25.820  0.00  0.00    -0.650 OA
BRANCH  63  65
ATOM     65  O   UNL d   1      15.696   6.022  26.332  0.00  0.00    -0.776 OA
ATOM     66  H   UNL d   1      15.021   5.961  25.628  0.00  0.00     0.167 HD
ENDBRANCH  63  65
ENDBRANCH  62  63
ENDBRANCH  61  62
ENDBRANCH  56  61
BRANCH  57  67
ATOM     67  C   UNL d   1      21.918   4.937  24.530  0.00  0.00     0.151 C 
BRANCH  67  68
ATOM     68  C   UNL d   1      21.271   4.085  23.465  0.00  0.00     0.143 C 
ATOM     69  O   UNL d   1      21.742   2.990  23.172  0.00  0.00    -0.650 OA
BRANCH  68  70
ATOM     70  O   UNL d   1      20.130   4.517  22.911  0.00  0.00    -0.776 OA
ATOM     71  H   UNL d   1      20.271   5.071  22.109  0.00  0.00     0.167 HD
ENDBRANCH  68  70
ENDBRANCH  67  68
ENDBRANCH  57  67
BRANCH  58  72
ATOM     72  C   UNL d   1      23.347   3.143  26.936  0.00  0.00     0.221 C 
BRANCH  72  73
ATOM     73  O   UNL d   1      22.965   2.001  27.677  0.00  0.00    -0.395 OA
ATOM     74  H   UNL d   1      22.002   1.903  27.561  0.00  0.00     0.209 HD
ENDBRANCH  72  73
ENDBRANCH  58  72
ENDBRANCH  54  55
ENDBRANCH   1  54
TORSDOF 36
ENDMDL
MODEL 4
REMARK VINA RESULT:      -6.6      3.151      6.243
REMARK WARNING: 32 MAX_TORS EXCEEDED!!!
REMARK  36 active torsions:
REMARK  status: ('A' for Active; 'I' for Inactive)
REMARK    1  A    between atoms: O_1  and  C_2 
REMARK    2  A    between atoms: C_2  and  CA_3 
REMARK    3  A    between atoms: C_5  and  C_7 
REMARK    4  A    between atoms: C_6  and  C_9 
REMARK    5  A    between atoms: C_7  and  C_10 
REMARK    6  A    between atoms: C_8  and  C_11 
REMARK    7  A    between atoms: C_9  and  C_12 
REMARK    8  A    between atoms: C_10  and  O_14 
REMARK    9  A    between atoms: C_11  and  C_15 
REMARK   10  A    between atoms: C_15  and  C_18 
REMARK   11  A    between atoms: C_17  and  C_20 
REMARK   12  A    between atoms: C_18  and  O_23 
REMARK   13  A    between atoms: C_19  and  C_24 
REMARK   14  A    between atoms: C_20  and  C_25 
REMARK   15  A    between atoms: C_21  and  C_26 
REMARK   16  A    between atoms: C_24  and  C_27 
REMARK   17  A    between atoms: C_25  and  O_29 
REMARK   18  A    between atoms: C_26  and  C_30 
REMARK   19  A    between atoms: C_30  and  C_33 
REMARK   20  A    between atoms: C_32  and  C_35 
REMARK   21  A    between atoms: C_33  and  O_38 
REMARK   22  A    between atoms: C_34  and  C_39 
REMARK   23  A    between atoms: C_35  and  C_40 
REMARK   24  A    between atoms: C_36  and  C_41 
REMARK   25  A    between atoms: C_39  and  C_42 
REMARK   26  A    between atoms: C_40  and  O_44 
REMARK   27  A    between atoms: C_41  and  C_45 
REMARK   28  A    between atoms: C_45  and  C_48 
REMARK   29  A    between atoms: C_47  and  C_50 
REMARK   30  A    between atoms: C_48  and  O_53 
REMARK   31  A    between atoms: C_50  and  C_54 
REMARK   32  A    between atoms: C_51  and  C_55 
REMARK   33  A    between atoms: C_54  and  O_57 
REMARK   34  A    between atoms: C_55  and  C_58 
REMARK   35  A    between atoms: C_58  and  C_59 
REMARK   36  A    between atoms: C_59  and  O_61 
ROOT
ATOM      1  C   UNL d   1      18.364   3.204  29.302  0.00  0.00     0.022 C 
ATOM      2  N   UNL d   1      17.183   3.797  28.955  0.00  0.00    -0.361 N 
ATOM      3  C   UNL d   1      18.058   1.927  29.771  0.00  0.00    -0.017 C 
ATOM      4  C   UNL d   1      16.146   2.901  29.010  0.00  0.00     0.022 C 
ATOM      5  C   UNL d   1      16.655   1.693  29.492  0.00  0.00    -0.026 C 
ATOM      6  H   UNL d   1      17.097   4.753  28.637  0.00  0.00     0.165 HD
ENDROOT
BRANCH   4   7
ATOM      7  C   UNL d   1      14.780   3.402  28.614  0.00  0.00     0.115 C 
BRANCH   7   8
ATOM      8  C   UNL d   1      14.013   4.191  29.625  0.00  0.00     0.022 A 
ATOM      9  C   UNL d   1      13.380   3.850  30.813  0.00  0.00    -0.017 A 
ATOM     10  C   UNL d   1      12.632   5.022  31.236  0.00  0.00    -0.026 A 
ATOM     11  C   UNL d   1      12.952   6.050  30.357  0.00  0.00     0.022 A 
ATOM     12  N   UNL d   1      13.801   5.526  29.417  0.00  0.00    -0.361 N 
ATOM     13  H   UNL d   1      14.200   6.061  28.656  0.00  0.00     0.165 HD
BRANCH   9  14
ATOM     14  C   UNL d   1      13.407   2.491  31.478  0.00  0.00     0.151 C 
BRANCH  14  15
ATOM     15  C   UNL d   1      14.356   2.384  32.663  0.00  0.00     0.143 C 
ATOM     16  O   UNL d   1      14.187   1.738  33.687  0.00  0.00    -0.650 OA
BRANCH  15  17
ATOM     17  O   UNL d   1      15.445   3.189  32.511  0.00  0.00    -0.776 OA
ATOM     18  H   UNL d   1      16.007   3.277  33.309  0.00  0.00     0.167 HD
ENDBRANCH  15  17
ENDBRANCH  14  15
ENDBRANCH   9  14
BRANCH  10  19
ATOM     19  C   UNL d   1      11.705   5.110  32.421  0.00  0.00     0.051 C 
BRANCH  19  20
ATOM     20  C   UNL d   1      12.422   5.469  33.725  0.00  0.00     0.114 C 
BRANCH  20  21
ATOM     21  C   UNL d   1      11.972   4.554  34.835  0.00  0.00     0.139 C 
ATOM     22  O   UNL d   1      11.994   4.847  36.020  0.00  0.00    -0.650 OA
BRANCH  21  23
ATOM     23  O   UNL d   1      11.586   3.332  34.406  0.00  0.00    -0.776 OA
ATOM     24  H   UNL d   1      11.674   3.170  33.447  0.00  0.00     0.167 HD
ENDBRANCH  21  23
ENDBRANCH  20  21
ENDBRANCH  19  20
ENDBRANCH  10  19
BRANCH  11  25
ATOM     25  C   UNL d   1      12.553   7.505  30.252  0.00  0.00     0.115 C 
BRANCH  25  26
ATOM     26  C   UNL d   1      13.213   8.371  31.314  0.00  0.00     0.022 A 
ATOM     27  C   UNL d   1      14.549   8.714  31.553  0.00  0.00    -0.018 A 
ATOM     28  C   UNL d   1      14.566   9.385  32.832  0.00  0.00    -0.034 A 
ATOM     29  C   UNL d   1      13.255   9.560  33.220  0.00  0.00     0.095 A 
ATOM     30  N   UNL d   1      12.457   8.931  32.321  0.00  0.00    -0.368 N 
ATOM     31  H   UNL d   1      11.456   8.819  32.427  0.00  0.00     0.165 HD
BRANCH  27  32
ATOM     32  C   UNL d   1      15.765   8.303  30.745  0.00  0.00     0.151 C 
BRANCH  32  33
ATOM     33  C   UNL d   1      16.610   7.149  31.258  0.00  0.00     0.143 C 
ATOM     34  O   UNL d   1      17.836   7.170  31.214  0.00  0.00    -0.650 OA
BRANCH  33  35
ATOM     35  O   UNL d   1      15.952   6.107  31.812  0.00  0.00    -0.776 OA
ATOM     36  H   UNL d   1      15.688   6.265  32.733  0.00  0.00     0.167 HD
ENDBRANCH  33  35
ENDBRANCH  32  33
ENDBRANCH  27  32
BRANCH  28  37
ATOM     37  C   UNL d   1      15.741   9.735  33.700  0.00  0.00     0.051 C 
BRANCH  37  38
ATOM     38  C   UNL d   1      15.323  10.100  35.129  0.00  0.00     0.114 C 
BRANCH  38  39
ATOM     39  C   UNL d   1      16.450  10.582  36.016  0.00  0.00     0.139 C 
ATOM     40  O   UNL d   1      16.351  10.691  37.229  0.00  0.00    -0.650 OA
BRANCH  39  41
ATOM     41  O   UNL d   1      17.621  10.817  35.379  0.00  0.00    -0.776 OA
ATOM     42  H   UNL d   1      18.051  10.000  35.059  0.00  0.00     0.167 HD
ENDBRANCH  39  41
ENDBRANCH  38  39
ENDBRANCH  37  38
ENDBRANCH  28  37
ENDBRANCH  25  26
ENDBRANCH  11  25
ENDBRANCH   7   8
ENDBRANCH   4   7
BRANCH   5  43
ATOM     43  C   UNL d   1      15.850   0.415  29.600  0.00  0.00     0.051 C 
BRANCH  43  44
ATOM     44  C   UNL d   1      16.509  -0.929  29.352  0.00  0.00     0.114 C 
BRANCH  44  45
ATOM     45  C   UNL d   1      16.398  -1.290  27.887  0.00  0.00     0.139 C 
ATOM     46  O   UNL d   1      16.834  -0.615  26.965  0.00  0.00    -0.650 OA
BRANCH  45  47
ATOM     47  O   UNL d   1      15.689  -2.421  27.675  0.00  0.00    -0.776 OA
ATOM     48  H   UNL d   1      15.827  -2.834  26.800  0.00  0.00     0.167 HD
ENDBRANCH  45  47
ENDBRANCH  44  45
ENDBRANCH  43  44
ENDBRANCH   5  43
BRANCH   3  49
ATOM     49  C   UNL d   1      19.025   0.983  30.424  0.00  0.00     0.151 C 
BRANCH  49  50
ATOM     50  C   UNL d   1      19.693   1.430  31.700  0.00  0.00     0.143 C 
ATOM     51  O   UNL d   1      19.089   2.070  32.550  0.00  0.00    -0.650 OA
BRANCH  50  52
ATOM     52  O   UNL d   1      20.989   1.088  31.878  0.00  0.00    -0.776 OA
ATOM     53  H   UNL d   1      21.219   0.157  31.677  0.00  0.00     0.167 HD
ENDBRANCH  50  52
ENDBRANCH  49  50
ENDBRANCH   3  49
BRANCH   1  54
ATOM     54  C   UNL d   1      19.654   3.938  29.058  0.00  0.00     0.115 C 
BRANCH  54  55
ATOM     55  C   UNL d   1      19.554   5.152  28.179  0.00  0.00     0.022 A 
ATOM     56  C   UNL d   1      20.277   5.587  27.069  0.00  0.00    -0.026 A 
ATOM     57  C   UNL d   1      19.783   6.914  26.731  0.00  0.00    -0.015 A 
ATOM     58  CA  UNL d   1      18.809   7.220  27.677  0.00  0.00     0.040 A 
ATOM     59  N   UNL d   1      18.667   6.141  28.507  0.00  0.00    -0.360 N 
ATOM     60  H   UNL d   1      18.027   6.098  29.292  0.00  0.00     0.165 HD
BRANCH  56  61
ATOM     61  C   UNL d   1      21.366   4.807  26.371  0.00  0.00     0.051 C 
BRANCH  61  62
ATOM     62  C   UNL d   1      22.701   4.680  27.099  0.00  0.00     0.114 C 
BRANCH  62  63
ATOM     63  C   UNL d   1      23.462   3.425  26.769  0.00  0.00     0.139 C 
ATOM     64  O   UNL d   1      24.515   3.423  26.151  0.00  0.00    -0.650 OA
BRANCH  63  65
ATOM     65  O   UNL d   1      22.903   2.296  27.251  0.00  0.00    -0.776 OA
ATOM     66  H   UNL d   1      23.516   1.738  27.769  0.00  0.00     0.167 HD
ENDBRANCH  63  65
ENDBRANCH  62  63
ENDBRANCH  61  62
ENDBRANCH  56  61
BRANCH  57  67
ATOM     67  C   UNL d   1      20.337   7.825  25.657  0.00  0.00     0.151 C 
BRANCH  67  68
ATOM     68  C   UNL d   1      20.696   9.265  25.936  0.00  0.00     0.143 C 
ATOM     69  O   UNL d   1      19.835  10.139  25.902  0.00  0.00    -0.650 OA
BRANCH  68  70
ATOM     70  O   UNL d   1      21.955   9.548  26.297  0.00  0.00    -0.776 OA
ATOM     71  H   UNL d   1      22.550   8.763  26.285  0.00  0.00     0.167 HD
ENDBRANCH  68  70
ENDBRANCH  67  68
ENDBRANCH  57  67
BRANCH  58  72
ATOM     72  C   UNL d   1      17.962   8.420  27.904  0.00  0.00     0.221 C 
BRANCH  72  73
ATOM     73  O   UNL d   1      18.680   9.192  28.846  0.00  0.00    -0.395 OA
ATOM     74  H   UNL d   1      19.197   8.564  29.385  0.00  0.00     0.209 HD
ENDBRANCH  72  73
ENDBRANCH  58  72
ENDBRANCH  54  55
ENDBRANCH   1  54
TORSDOF 36
ENDMDL
MODEL 5
REMARK VINA RESULT:      -6.4      2.556      8.306
REMARK WARNING: 32 MAX_TORS EXCEEDED!!!
REMARK  36 active torsions:
REMARK  status: ('A' for Active; 'I' for Inactive)
REMARK    1  A    between atoms: O_1  and  C_2 
REMARK    2  A    between atoms: C_2  and  CA_3 
REMARK    3  A    between atoms: C_5  and  C_7 
REMARK    4  A    between atoms: C_6  and  C_9 
REMARK    5  A    between atoms: C_7  and  C_10 
REMARK    6  A    between atoms: C_8  and  C_11 
REMARK    7  A    between atoms: C_9  and  C_12 
REMARK    8  A    between atoms: C_10  and  O_14 
REMARK    9  A    between atoms: C_11  and  C_15 
REMARK   10  A    between atoms: C_15  and  C_18 
REMARK   11  A    between atoms: C_17  and  C_20 
REMARK   12  A    between atoms: C_18  and  O_23 
REMARK   13  A    between atoms: C_19  and  C_24 
REMARK   14  A    between atoms: C_20  and  C_25 
REMARK   15  A    between atoms: C_21  and  C_26 
REMARK   16  A    between atoms: C_24  and  C_27 
REMARK   17  A    between atoms: C_25  and  O_29 
REMARK   18  A    between atoms: C_26  and  C_30 
REMARK   19  A    between atoms: C_30  and  C_33 
REMARK   20  A    between atoms: C_32  and  C_35 
REMARK   21  A    between atoms: C_33  and  O_38 
REMARK   22  A    between atoms: C_34  and  C_39 
REMARK   23  A    between atoms: C_35  and  C_40 
REMARK   24  A    between atoms: C_36  and  C_41 
REMARK   25  A    between atoms: C_39  and  C_42 
REMARK   26  A    between atoms: C_40  and  O_44 
REMARK   27  A    between atoms: C_41  and  C_45 
REMARK   28  A    between atoms: C_45  and  C_48 
REMARK   29  A    between atoms: C_47  and  C_50 
REMARK   30  A    between atoms: C_48  and  O_53 
REMARK   31  A    between atoms: C_50  and  C_54 
REMARK   32  A    between atoms: C_51  and  C_55 
REMARK   33  A    between atoms: C_54  and  O_57 
REMARK   34  A    between atoms: C_55  and  C_58 
REMARK   35  A    between atoms: C_58  and  C_59 
REMARK   36  A    between atoms: C_59  and  O_61 
ROOT
ATOM      1  C   UNL d   1      14.575   3.410  30.111  0.00  0.00     0.022 C 
ATOM      2  N   UNL d   1      15.414   3.651  29.060  0.00  0.00    -0.361 N 
ATOM      3  C   UNL d   1      15.098   2.323  30.812  0.00  0.00    -0.017 C 
ATOM      4  C   UNL d   1      16.549   2.885  29.149  0.00  0.00     0.022 C 
ATOM      5  C   UNL d   1      16.410   2.050  30.260  0.00  0.00    -0.026 C 
ATOM      6  H   UNL d   1      15.249   4.348  28.347  0.00  0.00     0.165 HD
ENDROOT
BRANCH   4   7
ATOM      7  C   UNL d   1      17.592   3.071  28.077  0.00  0.00     0.115 C 
BRANCH   7   8
ATOM      8  C   UNL d   1      18.589   4.167  28.265  0.00  0.00     0.022 A 
ATOM      9  C   UNL d   1      18.469   5.519  28.559  0.00  0.00    -0.017 A 
ATOM     10  C   UNL d   1      19.793   6.097  28.406  0.00  0.00    -0.026 A 
ATOM     11  C   UNL d   1      20.670   5.048  28.153  0.00  0.00     0.022 A 
ATOM     12  N   UNL d   1      19.920   3.901  28.100  0.00  0.00    -0.361 N 
ATOM     13  H   UNL d   1      20.309   2.981  27.937  0.00  0.00     0.165 HD
BRANCH   9  14
ATOM     14  C   UNL d   1      17.185   6.247  28.892  0.00  0.00     0.151 C 
BRANCH  14  15
ATOM     15  C   UNL d   1      17.076   6.713  30.336  0.00  0.00     0.143 C 
ATOM     16  O   UNL d   1      17.992   6.891  31.125  0.00  0.00    -0.650 OA
BRANCH  15  17
ATOM     17  O   UNL d   1      15.777   6.844  30.727  0.00  0.00    -0.776 OA
ATOM     18  H   UNL d   1      15.256   7.496  30.213  0.00  0.00     0.167 HD
ENDBRANCH  15  17
ENDBRANCH  14  15
ENDBRANCH   9  14
BRANCH  10  19
ATOM     19  C   UNL d   1      20.151   7.556  28.524  0.00  0.00     0.051 C 
BRANCH  19  20
ATOM     20  C   UNL d   1      20.558   8.188  27.190  0.00  0.00     0.114 C 
BRANCH  20  21
ATOM     21  C   UNL d   1      19.413   8.987  26.622  0.00  0.00     0.139 C 
ATOM     22  O   UNL d   1      18.254   8.889  26.994  0.00  0.00    -0.650 OA
BRANCH  21  23
ATOM     23  O   UNL d   1      19.773   9.799  25.603  0.00  0.00    -0.776 OA
ATOM     24  H   UNL d   1      19.065  10.027  24.969  0.00  0.00     0.167 HD
ENDBRANCH  21  23
ENDBRANCH  20  21
ENDBRANCH  19  20
ENDBRANCH  10  19
BRANCH  11  25
ATOM     25  C   UNL d   1      22.164   4.957  27.932  0.00  0.00     0.115 C 
BRANCH  25  26
ATOM     26  C   UNL d   1      22.523   4.591  26.500  0.00  0.00     0.022 A 
ATOM     27  C   UNL d   1      21.908   4.873  25.274  0.00  0.00    -0.018 A 
ATOM     28  C   UNL d   1      22.598   4.072  24.289  0.00  0.00    -0.034 A 
ATOM     29  C   UNL d   1      23.675   3.487  24.919  0.00  0.00     0.095 A 
ATOM     30  N   UNL d   1      23.607   3.783  26.241  0.00  0.00    -0.368 N 
ATOM     31  H   UNL d   1      24.220   3.391  26.946  0.00  0.00     0.165 HD
BRANCH  27  32
ATOM     32  C   UNL d   1      20.654   5.692  25.038  0.00  0.00     0.151 C 
BRANCH  32  33
ATOM     33  C   UNL d   1      19.428   4.984  24.486  0.00  0.00     0.143 C 
ATOM     34  O   UNL d   1      18.901   4.044  25.072  0.00  0.00    -0.650 OA
BRANCH  33  35
ATOM     35  O   UNL d   1      18.908   5.466  23.336  0.00  0.00    -0.776 OA
ATOM     36  H   UNL d   1      18.576   4.772  22.743  0.00  0.00     0.167 HD
ENDBRANCH  33  35
ENDBRANCH  32  33
ENDBRANCH  27  32
BRANCH  28  37
ATOM     37  C   UNL d   1      22.206   3.776  22.870  0.00  0.00     0.051 C 
BRANCH  37  38
ATOM     38  C   UNL d   1      21.750   2.324  22.682  0.00  0.00     0.114 C 
BRANCH  38  39
ATOM     39  C   UNL d   1      21.472   1.928  21.248  0.00  0.00     0.139 C 
ATOM     40  O   UNL d   1      22.194   2.242  20.313  0.00  0.00    -0.650 OA
BRANCH  39  41
ATOM     41  O   UNL d   1      20.397   1.125  21.073  0.00  0.00    -0.776 OA
ATOM     42  H   UNL d   1      19.705   1.262  21.749  0.00  0.00     0.167 HD
ENDBRANCH  39  41
ENDBRANCH  38  39
ENDBRANCH  37  38
ENDBRANCH  28  37
ENDBRANCH  25  26
ENDBRANCH  11  25
ENDBRANCH   7   8
ENDBRANCH   4   7
BRANCH   5  43
ATOM     43  C   UNL d   1      17.495   1.123  30.766  0.00  0.00     0.051 C 
BRANCH  43  44
ATOM     44  C   UNL d   1      18.461   1.588  31.839  0.00  0.00     0.114 C 
BRANCH  44  45
ATOM     45  C   UNL d   1      19.880   1.499  31.322  0.00  0.00     0.139 C 
ATOM     46  O   UNL d   1      20.224   1.753  30.176  0.00  0.00    -0.650 OA
BRANCH  45  47
ATOM     47  O   UNL d   1      20.750   1.031  32.245  0.00  0.00    -0.776 OA
ATOM     48  H   UNL d   1      20.392   0.968  33.152  0.00  0.00     0.167 HD
ENDBRANCH  45  47
ENDBRANCH  44  45
ENDBRANCH  43  44
ENDBRANCH   5  43
BRANCH   3  49
ATOM     49  C   UNL d   1      14.415   1.600  31.936  0.00  0.00     0.151 C 
BRANCH  49  50
ATOM     50  C   UNL d   1      13.837   2.427  33.057  0.00  0.00     0.143 C 
ATOM     51  O   UNL d   1      12.658   2.345  33.371  0.00  0.00    -0.650 OA
BRANCH  50  52
ATOM     52  O   UNL d   1      14.676   3.259  33.714  0.00  0.00    -0.776 OA
ATOM     53  H   UNL d   1      15.059   3.989  33.184  0.00  0.00     0.167 HD
ENDBRANCH  50  52
ENDBRANCH  49  50
ENDBRANCH   3  49
BRANCH   1  54
ATOM     54  C   UNL d   1      13.405   4.326  30.341  0.00  0.00     0.115 C 
BRANCH  54  55
ATOM     55  C   UNL d   1      12.314   4.258  29.311  0.00  0.00     0.022 A 
ATOM     56  C   UNL d   1      12.214   4.712  27.997  0.00  0.00    -0.026 A 
ATOM     57  C   UNL d   1      10.849   4.457  27.559  0.00  0.00    -0.015 A 
ATOM     58  CA  UNL d   1      10.191   3.889  28.646  0.00  0.00     0.040 A 
ATOM     59  N   UNL d   1      11.094   3.748  29.665  0.00  0.00    -0.360 N 
ATOM     60  H   UNL d   1      10.876   3.367  30.578  0.00  0.00     0.165 HD
BRANCH  56  61
ATOM     61  C   UNL d   1      13.329   5.351  27.203  0.00  0.00     0.051 C 
BRANCH  61  62
ATOM     62  C   UNL d   1      13.810   6.724  27.666  0.00  0.00     0.114 C 
BRANCH  62  63
ATOM     63  C   UNL d   1      14.779   7.383  26.723  0.00  0.00     0.139 C 
ATOM     64  O   UNL d   1      15.225   6.833  25.728  0.00  0.00    -0.650 OA
BRANCH  63  65
ATOM     65  O   UNL d   1      15.086   8.656  27.045  0.00  0.00    -0.776 OA
ATOM     66  H   UNL d   1      16.015   8.900  26.868  0.00  0.00     0.167 HD
ENDBRANCH  63  65
ENDBRANCH  62  63
ENDBRANCH  61  62
ENDBRANCH  56  61
BRANCH  57  67
ATOM     67  C   UNL d   1      10.244   4.873  26.235  0.00  0.00     0.151 C 
BRANCH  67  68
ATOM     68  C   UNL d   1       9.680   3.867  25.261  0.00  0.00     0.143 C 
ATOM     69  O   UNL d   1       9.934   2.672  25.384  0.00  0.00    -0.650 OA
BRANCH  68  70
ATOM     70  O   UNL d   1       8.836   4.301  24.316  0.00  0.00    -0.776 OA
ATOM     71  H   UNL d   1       9.201   5.040  23.776  0.00  0.00     0.167 HD
ENDBRANCH  68  70
ENDBRANCH  67  68
ENDBRANCH  57  67
BRANCH  58  72
ATOM     72  C   UNL d   1       8.791   3.436  28.856  0.00  0.00     0.221 C 
BRANCH  72  73
ATOM     73  O   UNL d   1       8.675   2.259  28.082  0.00  0.00    -0.395 OA
ATOM     74  H   UNL d   1       9.184   1.568  28.547  0.00  0.00     0.209 HD
ENDBRANCH  72  73
ENDBRANCH  58  72
ENDBRANCH  54  55
ENDBRANCH   1  54
TORSDOF 36
ENDMDL
MODEL 6
REMARK VINA RESULT:      -6.4     19.339     23.881
REMARK WARNING: 32 MAX_TORS EXCEEDED!!!
REMARK  36 active torsions:
REMARK  status: ('A' for Active; 'I' for Inactive)
REMARK    1  A    between atoms: O_1  and  C_2 
REMARK    2  A    between atoms: C_2  and  CA_3 
REMARK    3  A    between atoms: C_5  and  C_7 
REMARK    4  A    between atoms: C_6  and  C_9 
REMARK    5  A    between atoms: C_7  and  C_10 
REMARK    6  A    between atoms: C_8  and  C_11 
REMARK    7  A    between atoms: C_9  and  C_12 
REMARK    8  A    between atoms: C_10  and  O_14 
REMARK    9  A    between atoms: C_11  and  C_15 
REMARK   10  A    between atoms: C_15  and  C_18 
REMARK   11  A    between atoms: C_17  and  C_20 
REMARK   12  A    between atoms: C_18  and  O_23 
REMARK   13  A    between atoms: C_19  and  C_24 
REMARK   14  A    between atoms: C_20  and  C_25 
REMARK   15  A    between atoms: C_21  and  C_26 
REMARK   16  A    between atoms: C_24  and  C_27 
REMARK   17  A    between atoms: C_25  and  O_29 
REMARK   18  A    between atoms: C_26  and  C_30 
REMARK   19  A    between atoms: C_30  and  C_33 
REMARK   20  A    between atoms: C_32  and  C_35 
REMARK   21  A    between atoms: C_33  and  O_38 
REMARK   22  A    between atoms: C_34  and  C_39 
REMARK   23  A    between atoms: C_35  and  C_40 
REMARK   24  A    between atoms: C_36  and  C_41 
REMARK   25  A    between atoms: C_39  and  C_42 
REMARK   26  A    between atoms: C_40  and  O_44 
REMARK   27  A    between atoms: C_41  and  C_45 
REMARK   28  A    between atoms: C_45  and  C_48 
REMARK   29  A    between atoms: C_47  and  C_50 
REMARK   30  A    between atoms: C_48  and  O_53 
REMARK   31  A    between atoms: C_50  and  C_54 
REMARK   32  A    between atoms: C_51  and  C_55 
REMARK   33  A    between atoms: C_54  and  O_57 
REMARK   34  A    between atoms: C_55  and  C_58 
REMARK   35  A    between atoms: C_58  and  C_59 
REMARK   36  A    between atoms: C_59  and  O_61 
ROOT
ATOM      1  C   UNL d   1       5.225  -5.497  12.172  0.00  0.00     0.022 C 
ATOM      2  N   UNL d   1       5.718  -6.217  11.121  0.00  0.00    -0.361 N 
ATOM      3  C   UNL d   1       6.295  -5.228  13.023  0.00  0.00    -0.017 C 
ATOM      4  C   UNL d   1       7.089  -6.275  11.163  0.00  0.00     0.022 C 
ATOM      5  C   UNL d   1       7.504  -5.636  12.333  0.00  0.00    -0.026 C 
ATOM      6  H   UNL d   1       5.152  -6.601  10.376  0.00  0.00     0.165 HD
ENDROOT
BRANCH   4   7
ATOM      7  C   UNL d   1       7.782  -7.006  10.042  0.00  0.00     0.115 C 
BRANCH   7   8
ATOM      8  C   UNL d   1       8.502  -6.185   9.022  0.00  0.00     0.022 A 
ATOM      9  C   UNL d   1       8.143  -5.069   8.278  0.00  0.00    -0.017 A 
ATOM     10  C   UNL d   1       9.204  -4.859   7.306  0.00  0.00    -0.026 A 
ATOM     11  C   UNL d   1      10.208  -5.776   7.595  0.00  0.00     0.022 A 
ATOM     12  N   UNL d   1       9.767  -6.540   8.644  0.00  0.00    -0.361 N 
ATOM     13  H   UNL d   1      10.308  -7.284   9.066  0.00  0.00     0.165 HD
BRANCH   9  14
ATOM     14  C   UNL d   1       6.855  -4.287   8.411  0.00  0.00     0.151 C 
BRANCH  14  15
ATOM     15  C   UNL d   1       6.985  -2.978   9.176  0.00  0.00     0.143 C 
ATOM     16  O   UNL d   1       6.994  -2.831  10.390  0.00  0.00    -0.650 OA
BRANCH  15  17
ATOM     17  O   UNL d   1       7.009  -1.904   8.337  0.00  0.00    -0.776 OA
ATOM     18  H   UNL d   1       6.330  -1.918   7.631  0.00  0.00     0.167 HD
ENDBRANCH  15  17
ENDBRANCH  14  15
ENDBRANCH   9  14
BRANCH  10  19
ATOM     19  C   UNL d   1       9.220  -3.826   6.210  0.00  0.00     0.051 C 
BRANCH  19  20
ATOM     20  C   UNL d   1      10.514  -3.008   6.169  0.00  0.00     0.114 C 
BRANCH  20  21
ATOM     21  C   UNL d   1      10.750  -2.341   7.499  0.00  0.00     0.139 C 
ATOM     22  O   UNL d   1      11.703  -2.573   8.226  0.00  0.00    -0.650 OA
BRANCH  21  23
ATOM     23  O   UNL d   1       9.767  -1.485   7.858  0.00  0.00    -0.776 OA
ATOM     24  H   UNL d   1       8.982  -1.889   8.276  0.00  0.00     0.167 HD
ENDBRANCH  21  23
ENDBRANCH  20  21
ENDBRANCH  19  20
ENDBRANCH  10  19
BRANCH  11  25
ATOM     25  C   UNL d   1      11.569  -6.065   7.000  0.00  0.00     0.115 C 
BRANCH  25  26
ATOM     26  C   UNL d   1      11.896  -7.550   6.979  0.00  0.00     0.022 A 
ATOM     27  C   UNL d   1      11.324  -8.631   6.298  0.00  0.00    -0.018 A 
ATOM     28  C   UNL d   1      11.930  -9.818   6.853  0.00  0.00    -0.034 A 
ATOM     29  C   UNL d   1      12.934  -9.406   7.702  0.00  0.00     0.095 A 
ATOM     30  N   UNL d   1      12.890  -8.053   7.789  0.00  0.00    -0.368 N 
ATOM     31  H   UNL d   1      13.453  -7.504   8.427  0.00  0.00     0.165 HD
BRANCH  27  32
ATOM     32  C   UNL d   1      10.165  -8.595   5.319  0.00  0.00     0.151 C 
BRANCH  32  33
ATOM     33  C   UNL d   1       8.761  -8.431   5.875  0.00  0.00     0.143 C 
ATOM     34  O   UNL d   1       8.428  -8.912   6.953  0.00  0.00    -0.650 OA
BRANCH  33  35
ATOM     35  O   UNL d   1       7.897  -7.688   5.148  0.00  0.00    -0.776 OA
ATOM     36  H   UNL d   1       7.858  -7.949   4.213  0.00  0.00     0.167 HD
ENDBRANCH  33  35
ENDBRANCH  32  33
ENDBRANCH  27  32
BRANCH  28  37
ATOM     37  C   UNL d   1      11.518 -11.253   6.691  0.00  0.00     0.051 C 
BRANCH  37  38
ATOM     38  C   UNL d   1      10.857 -11.817   7.954  0.00  0.00     0.114 C 
BRANCH  38  39
ATOM     39  C   UNL d   1       9.493 -12.434   7.734  0.00  0.00     0.139 C 
ATOM     40  O   UNL d   1       8.746 -12.105   6.825  0.00  0.00    -0.650 OA
BRANCH  39  41
ATOM     41  O   UNL d   1       9.177 -13.444   8.578  0.00  0.00    -0.776 OA
ATOM     42  H   UNL d   1       8.719 -13.139   9.384  0.00  0.00     0.167 HD
ENDBRANCH  39  41
ENDBRANCH  38  39
ENDBRANCH  37  38
ENDBRANCH  28  37
ENDBRANCH  25  26
ENDBRANCH  11  25
ENDBRANCH   7   8
ENDBRANCH   4   7
BRANCH   5  43
ATOM     43  C   UNL d   1       8.952  -5.392  12.699  0.00  0.00     0.051 C 
BRANCH  43  44
ATOM     44  C   UNL d   1       9.538  -3.995  12.618  0.00  0.00     0.114 C 
BRANCH  44  45
ATOM     45  C   UNL d   1      10.248  -3.814  11.294  0.00  0.00     0.139 C 
ATOM     46  O   UNL d   1      11.015  -4.625  10.796  0.00  0.00    -0.650 OA
BRANCH  45  47
ATOM     47  O   UNL d   1      10.010  -2.609  10.729  0.00  0.00    -0.776 OA
ATOM     48  H   UNL d   1       9.884  -2.628   9.760  0.00  0.00     0.167 HD
ENDBRANCH  45  47
ENDBRANCH  44  45
ENDBRANCH  43  44
ENDBRANCH   5  43
BRANCH   3  49
ATOM     49  C   UNL d   1       6.192  -4.615  14.389  0.00  0.00     0.151 C 
BRANCH  49  50
ATOM     50  C   UNL d   1       6.385  -5.516  15.583  0.00  0.00     0.143 C 
ATOM     51  O   UNL d   1       7.230  -5.280  16.435  0.00  0.00    -0.650 OA
BRANCH  50  52
ATOM     52  O   UNL d   1       5.578  -6.596  15.684  0.00  0.00    -0.776 OA
ATOM     53  H   UNL d   1       5.905  -7.325  16.252  0.00  0.00     0.167 HD
ENDBRANCH  50  52
ENDBRANCH  49  50
ENDBRANCH   3  49
BRANCH   1  54
ATOM     54  C   UNL d   1       3.775  -5.095  12.171  0.00  0.00     0.115 C 
BRANCH  54  55
ATOM     55  C   UNL d   1       3.510  -3.617  12.147  0.00  0.00     0.022 A 
ATOM     56  C   UNL d   1       2.724  -2.777  12.934  0.00  0.00    -0.026 A 
ATOM     57  C   UNL d   1       2.778  -1.453  12.331  0.00  0.00    -0.015 A 
ATOM     58  CA  UNL d   1       3.570  -1.574  11.193  0.00  0.00     0.040 A 
ATOM     59  N   UNL d   1       4.023  -2.865  11.125  0.00  0.00    -0.360 N 
ATOM     60  H   UNL d   1       4.615  -3.228  10.388  0.00  0.00     0.165 HD
BRANCH  56  61
ATOM     61  C   UNL d   1       1.966  -3.192  14.173  0.00  0.00     0.051 C 
BRANCH  61  62
ATOM     62  C   UNL d   1       2.792  -3.497  15.420  0.00  0.00     0.114 C 
BRANCH  62  63
ATOM     63  C   UNL d   1       2.538  -4.859  16.004  0.00  0.00     0.139 C 
ATOM     64  O   UNL d   1       2.758  -5.899  15.402  0.00  0.00    -0.650 OA
BRANCH  63  65
ATOM     65  O   UNL d   1       2.080  -4.842  17.272  0.00  0.00    -0.776 OA
ATOM     66  H   UNL d   1       2.305  -5.640  17.789  0.00  0.00     0.167 HD
ENDBRANCH  63  65
ENDBRANCH  62  63
ENDBRANCH  61  62
ENDBRANCH  56  61
BRANCH  57  67
ATOM     67  C   UNL d   1       1.998  -0.236  12.780  0.00  0.00     0.151 C 
BRANCH  67  68
ATOM     68  C   UNL d   1       0.492  -0.175  12.696  0.00  0.00     0.143 C 
ATOM     69  O   UNL d   1      -0.142   0.581  13.427  0.00  0.00    -0.650 OA
BRANCH  68  70
ATOM     70  O   UNL d   1      -0.123  -0.903  11.755  0.00  0.00    -0.776 OA
ATOM     71  H   UNL d   1       0.207  -1.830  11.700  0.00  0.00     0.167 HD
ENDBRANCH  68  70
ENDBRANCH  67  68
ENDBRANCH  57  67
BRANCH  58  72
ATOM     72  C   UNL d   1       3.980  -0.610  10.139  0.00  0.00     0.221 C 
BRANCH  72  73
ATOM     73  O   UNL d   1       5.346  -0.353  10.400  0.00  0.00    -0.395 OA
ATOM     74  H   UNL d   1       5.764  -0.163   9.540  0.00  0.00     0.209 HD
ENDBRANCH  72  73
ENDBRANCH  58  72
ENDBRANCH  54  55
ENDBRANCH   1  54
TORSDOF 36
ENDMDL
MODEL 7
REMARK VINA RESULT:      -6.1     19.331     22.723
REMARK WARNING: 32 MAX_TORS EXCEEDED!!!
REMARK  36 active torsions:
REMARK  status: ('A' for Active; 'I' for Inactive)
REMARK    1  A    between atoms: O_1  and  C_2 
REMARK    2  A    between atoms: C_2  and  CA_3 
REMARK    3  A    between atoms: C_5  and  C_7 
REMARK    4  A    between atoms: C_6  and  C_9 
REMARK    5  A    between atoms: C_7  and  C_10 
REMARK    6  A    between atoms: C_8  and  C_11 
REMARK    7  A    between atoms: C_9  and  C_12 
REMARK    8  A    between atoms: C_10  and  O_14 
REMARK    9  A    between atoms: C_11  and  C_15 
REMARK   10  A    between atoms: C_15  and  C_18 
REMARK   11  A    between atoms: C_17  and  C_20 
REMARK   12  A    between atoms: C_18  and  O_23 
REMARK   13  A    between atoms: C_19  and  C_24 
REMARK   14  A    between atoms: C_20  and  C_25 
REMARK   15  A    between atoms: C_21  and  C_26 
REMARK   16  A    between atoms: C_24  and  C_27 
REMARK   17  A    between atoms: C_25  and  O_29 
REMARK   18  A    between atoms: C_26  and  C_30 
REMARK   19  A    between atoms: C_30  and  C_33 
REMARK   20  A    between atoms: C_32  and  C_35 
REMARK   21  A    between atoms: C_33  and  O_38 
REMARK   22  A    between atoms: C_34  and  C_39 
REMARK   23  A    between atoms: C_35  and  C_40 
REMARK   24  A    between atoms: C_36  and  C_41 
REMARK   25  A    between atoms: C_39  and  C_42 
REMARK   26  A    between atoms: C_40  and  O_44 
REMARK   27  A    between atoms: C_41  and  C_45 
REMARK   28  A    between atoms: C_45  and  C_48 
REMARK   29  A    between atoms: C_47  and  C_50 
REMARK   30  A    between atoms: C_48  and  O_53 
REMARK   31  A    between atoms: C_50  and  C_54 
REMARK   32  A    between atoms: C_51  and  C_55 
REMARK   33  A    between atoms: C_54  and  O_57 
REMARK   34  A    between atoms: C_55  and  C_58 
REMARK   35  A    between atoms: C_58  and  C_59 
REMARK   36  A    between atoms: C_59  and  O_61 
ROOT
ATOM      1  C   UNL d   1       8.677  -5.348   8.368  0.00  0.00     0.022 C 
ATOM      2  N   UNL d   1       7.426  -5.628   8.840  0.00  0.00    -0.361 N 
ATOM      3  C   UNL d   1       9.441  -4.932   9.457  0.00  0.00    -0.017 C 
ATOM      4  C   UNL d   1       7.394  -5.584  10.212  0.00  0.00     0.022 C 
ATOM      5  C   UNL d   1       8.656  -5.178  10.651  0.00  0.00    -0.026 C 
ATOM      6  H   UNL d   1       6.643  -5.897   8.259  0.00  0.00     0.165 HD
ENDROOT
BRANCH   4   7
ATOM      7  C   UNL d   1       6.085  -5.913  10.882  0.00  0.00     0.115 C 
BRANCH   7   8
ATOM      8  C   UNL d   1       5.535  -4.916  11.850  0.00  0.00     0.022 A 
ATOM      9  C   UNL d   1       5.208  -4.984  13.198  0.00  0.00    -0.017 A 
ATOM     10  C   UNL d   1       4.523  -3.744  13.522  0.00  0.00    -0.026 A 
ATOM     11  C   UNL d   1       4.584  -2.937  12.392  0.00  0.00     0.022 A 
ATOM     12  N   UNL d   1       5.218  -3.659  11.415  0.00  0.00    -0.361 N 
ATOM     13  H   UNL d   1       5.406  -3.307  10.485  0.00  0.00     0.165 HD
BRANCH   9  14
ATOM     14  C   UNL d   1       5.451  -6.163  14.114  0.00  0.00     0.151 C 
BRANCH  14  15
ATOM     15  C   UNL d   1       6.659  -6.017  15.028  0.00  0.00     0.143 C 
ATOM     16  O   UNL d   1       7.208  -4.978  15.365  0.00  0.00    -0.650 OA
BRANCH  15  17
ATOM     17  O   UNL d   1       7.161  -7.229  15.397  0.00  0.00    -0.776 OA
ATOM     18  H   UNL d   1       7.504  -7.775  14.660  0.00  0.00     0.167 HD
ENDBRANCH  15  17
ENDBRANCH  14  15
ENDBRANCH   9  14
BRANCH  10  19
ATOM     19  C   UNL d   1       3.890  -3.392  14.843  0.00  0.00     0.051 C 
BRANCH  19  20
ATOM     20  C   UNL d   1       2.404  -3.756  14.918  0.00  0.00     0.114 C 
BRANCH  20  21
ATOM     21  C   UNL d   1       1.713  -2.910  15.957  0.00  0.00     0.139 C 
ATOM     22  O   UNL d   1       1.430  -1.732  15.807  0.00  0.00    -0.650 OA
BRANCH  21  23
ATOM     23  O   UNL d   1       1.479  -3.562  17.117  0.00  0.00    -0.776 OA
ATOM     24  H   UNL d   1       2.086  -4.298  17.323  0.00  0.00     0.167 HD
ENDBRANCH  21  23
ENDBRANCH  20  21
ENDBRANCH  19  20
ENDBRANCH  10  19
BRANCH  11  25
ATOM     25  C   UNL d   1       4.104  -1.538  12.073  0.00  0.00     0.115 C 
BRANCH  25  26
ATOM     26  C   UNL d   1       2.598  -1.387  12.219  0.00  0.00     0.022 A 
ATOM     27  C   UNL d   1       1.524  -2.107  11.683  0.00  0.00    -0.018 A 
ATOM     28  C   UNL d   1       0.335  -1.354  12.011  0.00  0.00    -0.034 A 
ATOM     29  C   UNL d   1       0.719  -0.329  12.849  0.00  0.00     0.095 A 
ATOM     30  N   UNL d   1       2.072  -0.344  12.947  0.00  0.00    -0.368 N 
ATOM     31  H   UNL d   1       2.617   0.368  13.420  0.00  0.00     0.165 HD
BRANCH  27  32
ATOM     32  C   UNL d   1       1.588  -3.322  10.776  0.00  0.00     0.151 C 
BRANCH  32  33
ATOM     33  C   UNL d   1       2.164  -3.146   9.381  0.00  0.00     0.143 C 
ATOM     34  O   UNL d   1       3.255  -3.610   9.065  0.00  0.00    -0.650 OA
BRANCH  33  35
ATOM     35  O   UNL d   1       1.399  -2.492   8.480  0.00  0.00    -0.776 OA
ATOM     36  H   UNL d   1       1.242  -1.562   8.712  0.00  0.00     0.167 HD
ENDBRANCH  33  35
ENDBRANCH  32  33
ENDBRANCH  27  32
BRANCH  28  37
ATOM     37  C   UNL d   1      -1.060  -1.510  11.476  0.00  0.00     0.051 C 
BRANCH  37  38
ATOM     38  C   UNL d   1      -1.405  -0.446  10.427  0.00  0.00     0.114 C 
BRANCH  38  39
ATOM     39  C   UNL d   1      -2.245   0.703  10.942  0.00  0.00     0.139 C 
ATOM     40  O   UNL d   1      -2.294   1.795  10.396  0.00  0.00    -0.650 OA
BRANCH  39  41
ATOM     41  O   UNL d   1      -3.011   0.415  12.020  0.00  0.00    -0.776 OA
ATOM     42  H   UNL d   1      -3.052   1.148  12.664  0.00  0.00     0.167 HD
ENDBRANCH  39  41
ENDBRANCH  38  39
ENDBRANCH  37  38
ENDBRANCH  28  37
ENDBRANCH  25  26
ENDBRANCH  11  25
ENDBRANCH   7   8
ENDBRANCH   4   7
BRANCH   5  43
ATOM     43  C   UNL d   1       9.066  -5.106  12.107  0.00  0.00     0.051 C 
BRANCH  43  44
ATOM     44  C   UNL d   1       9.513  -3.790  12.713  0.00  0.00     0.114 C 
BRANCH  44  45
ATOM     45  C   UNL d   1       8.352  -2.820  12.742  0.00  0.00     0.139 C 
ATOM     46  O   UNL d   1       7.886  -2.258  11.761  0.00  0.00    -0.650 OA
BRANCH  45  47
ATOM     47  O   UNL d   1       7.910  -2.564  13.994  0.00  0.00    -0.776 OA
ATOM     48  H   UNL d   1       7.869  -3.343  14.582  0.00  0.00     0.167 HD
ENDBRANCH  45  47
ENDBRANCH  44  45
ENDBRANCH  43  44
ENDBRANCH   5  43
BRANCH   3  49
ATOM     49  C   UNL d   1      10.825  -4.356   9.382  0.00  0.00     0.151 C 
BRANCH  49  50
ATOM     50  C   UNL d   1      10.961  -2.888   9.063  0.00  0.00     0.143 C 
ATOM     51  O   UNL d   1      11.778  -2.482   8.248  0.00  0.00    -0.650 OA
BRANCH  50  52
ATOM     52  O   UNL d   1      10.135  -2.032   9.706  0.00  0.00    -0.776 OA
ATOM     53  H   UNL d   1      10.565  -1.395  10.314  0.00  0.00     0.167 HD
ENDBRANCH  50  52
ENDBRANCH  49  50
ENDBRANCH   3  49
BRANCH   1  54
ATOM     54  C   UNL d   1       8.987  -5.596   6.918  0.00  0.00     0.115 C 
BRANCH  54  55
ATOM     55  C   UNL d   1       9.242  -4.370   6.089  0.00  0.00     0.022 A 
ATOM     56  C   UNL d   1       8.403  -3.472   5.430  0.00  0.00    -0.026 A 
ATOM     57  C   UNL d   1       9.255  -2.557   4.685  0.00  0.00    -0.015 A 
ATOM     58  CA  UNL d   1      10.564  -2.974   4.911  0.00  0.00     0.040 A 
ATOM     59  N   UNL d   1      10.532  -4.033   5.777  0.00  0.00    -0.360 N 
ATOM     60  H   UNL d   1      11.349  -4.534   6.104  0.00  0.00     0.165 HD
BRANCH  56  61
ATOM     61  C   UNL d   1       6.893  -3.475   5.494  0.00  0.00     0.051 C 
BRANCH  61  62
ATOM     62  C   UNL d   1       6.234  -2.389   6.340  0.00  0.00     0.114 C 
BRANCH  62  63
ATOM     63  C   UNL d   1       6.874  -2.190   7.686  0.00  0.00     0.139 C 
ATOM     64  O   UNL d   1       6.456  -2.707   8.710  0.00  0.00    -0.650 OA
BRANCH  63  65
ATOM     65  O   UNL d   1       7.981  -1.420   7.665  0.00  0.00    -0.776 OA
ATOM     66  H   UNL d   1       7.856  -0.552   7.235  0.00  0.00     0.167 HD
ENDBRANCH  63  65
ENDBRANCH  62  63
ENDBRANCH  61  62
ENDBRANCH  56  61
BRANCH  57  67
ATOM     67  C   UNL d   1       8.788  -1.473   3.738  0.00  0.00     0.151 C 
BRANCH  67  68
ATOM     68  C   UNL d   1       8.626  -0.039   4.180  0.00  0.00     0.143 C 
ATOM     69  O   UNL d   1       7.922   0.239   5.147  0.00  0.00    -0.650 OA
BRANCH  68  70
ATOM     70  O   UNL d   1       9.330   0.907   3.544  0.00  0.00    -0.776 OA
ATOM     71  H   UNL d   1       9.873   1.462   4.149  0.00  0.00     0.167 HD
ENDBRANCH  68  70
ENDBRANCH  67  68
ENDBRANCH  57  67
BRANCH  58  72
ATOM     72  C   UNL d   1      11.879  -2.488   4.416  0.00  0.00     0.221 C 
BRANCH  72  73
ATOM     73  O   UNL d   1      12.369  -1.662   5.454  0.00  0.00    -0.395 OA
ATOM     74  H   UNL d   1      13.305  -1.904   5.584  0.00  0.00     0.209 HD
ENDBRANCH  72  73
ENDBRANCH  58  72
ENDBRANCH  54  55
ENDBRANCH   1  54
TORSDOF 36
ENDMDL
MODEL 8
REMARK VINA RESULT:      -6.0     19.710     22.571
REMARK WARNING: 32 MAX_TORS EXCEEDED!!!
REMARK  36 active torsions:
REMARK  status: ('A' for Active; 'I' for Inactive)
REMARK    1  A    between atoms: O_1  and  C_2 
REMARK    2  A    between atoms: C_2  and  CA_3 
REMARK    3  A    between atoms: C_5  and  C_7 
REMARK    4  A    between atoms: C_6  and  C_9 
REMARK    5  A    between atoms: C_7  and  C_10 
REMARK    6  A    between atoms: C_8  and  C_11 
REMARK    7  A    between atoms: C_9  and  C_12 
REMARK    8  A    between atoms: C_10  and  O_14 
REMARK    9  A    between atoms: C_11  and  C_15 
REMARK   10  A    between atoms: C_15  and  C_18 
REMARK   11  A    between atoms: C_17  and  C_20 
REMARK   12  A    between atoms: C_18  and  O_23 
REMARK   13  A    between atoms: C_19  and  C_24 
REMARK   14  A    between atoms: C_20  and  C_25 
REMARK   15  A    between atoms: C_21  and  C_26 
REMARK   16  A    between atoms: C_24  and  C_27 
REMARK   17  A    between atoms: C_25  and  O_29 
REMARK   18  A    between atoms: C_26  and  C_30 
REMARK   19  A    between atoms: C_30  and  C_33 
REMARK   20  A    between atoms: C_32  and  C_35 
REMARK   21  A    between atoms: C_33  and  O_38 
REMARK   22  A    between atoms: C_34  and  C_39 
REMARK   23  A    between atoms: C_35  and  C_40 
REMARK   24  A    between atoms: C_36  and  C_41 
REMARK   25  A    between atoms: C_39  and  C_42 
REMARK   26  A    between atoms: C_40  and  O_44 
REMARK   27  A    between atoms: C_41  and  C_45 
REMARK   28  A    between atoms: C_45  and  C_48 
REMARK   29  A    between atoms: C_47  and  C_50 
REMARK   30  A    between atoms: C_48  and  O_53 
REMARK   31  A    between atoms: C_50  and  C_54 
REMARK   32  A    between atoms: C_51  and  C_55 
REMARK   33  A    between atoms: C_54  and  O_57 
REMARK   34  A    between atoms: C_55  and  C_58 
REMARK   35  A    between atoms: C_58  and  C_59 
REMARK   36  A    between atoms: C_59  and  O_61 
ROOT
ATOM      1  C   UNL d   1       7.257  -3.209  13.111  0.00  0.00     0.022 C 
ATOM      2  N   UNL d   1       6.724  -2.138  12.450  0.00  0.00    -0.361 N 
ATOM      3  C   UNL d   1       6.248  -3.737  13.915  0.00  0.00    -0.017 C 
ATOM      4  C   UNL d   1       5.370  -2.058  12.653  0.00  0.00     0.022 C 
ATOM      5  C   UNL d   1       5.015  -3.068  13.550  0.00  0.00    -0.026 C 
ATOM      6  H   UNL d   1       7.249  -1.526  11.839  0.00  0.00     0.165 HD
ENDROOT
BRANCH   4   7
ATOM      7  C   UNL d   1       4.633  -0.946  11.951  0.00  0.00     0.115 C 
BRANCH   7   8
ATOM      8  C   UNL d   1       3.607  -1.330  10.935  0.00  0.00     0.022 A 
ATOM      9  C   UNL d   1       3.682  -1.662   9.589  0.00  0.00    -0.017 A 
ATOM     10  C   UNL d   1       2.316  -1.736   9.101  0.00  0.00    -0.026 A 
ATOM     11  C   UNL d   1       1.481  -1.572  10.201  0.00  0.00     0.022 A 
ATOM     12  N   UNL d   1       2.286  -1.355  11.289  0.00  0.00    -0.361 N 
ATOM     13  H   UNL d   1       1.938  -1.213  12.228  0.00  0.00     0.165 HD
BRANCH   9  14
ATOM     14  C   UNL d   1       4.952  -1.829   8.784  0.00  0.00     0.151 C 
BRANCH  14  15
ATOM     15  C   UNL d   1       5.870  -2.942   9.270  0.00  0.00     0.143 C 
ATOM     16  O   UNL d   1       5.537  -4.040   9.693  0.00  0.00    -0.650 OA
BRANCH  15  17
ATOM     17  O   UNL d   1       7.176  -2.555   9.270  0.00  0.00    -0.776 OA
ATOM     18  H   UNL d   1       7.704  -2.885   8.514  0.00  0.00     0.167 HD
ENDBRANCH  15  17
ENDBRANCH  14  15
ENDBRANCH   9  14
BRANCH  10  19
ATOM     19  C   UNL d   1       1.887  -1.970   7.676  0.00  0.00     0.051 C 
BRANCH  19  20
ATOM     20  C   UNL d   1       2.287  -0.835   6.729  0.00  0.00     0.114 C 
BRANCH  20  21
ATOM     21  C   UNL d   1       3.015  -1.389   5.532  0.00  0.00     0.139 C 
ATOM     22  O   UNL d   1       4.055  -0.930   5.086  0.00  0.00    -0.650 OA
BRANCH  21  23
ATOM     23  O   UNL d   1       2.377  -2.424   4.942  0.00  0.00    -0.776 OA
ATOM     24  H   UNL d   1       2.618  -3.313   5.266  0.00  0.00     0.167 HD
ENDBRANCH  21  23
ENDBRANCH  20  21
ENDBRANCH  19  20
ENDBRANCH  10  19
BRANCH  11  25
ATOM     25  C   UNL d   1      -0.020  -1.574  10.390  0.00  0.00     0.115 C 
BRANCH  25  26
ATOM     26  C   UNL d   1      -0.469  -2.502  11.507  0.00  0.00     0.022 A 
ATOM     27  C   UNL d   1      -0.926  -2.258  12.807  0.00  0.00    -0.018 A 
ATOM     28  C   UNL d   1      -0.989  -3.547  13.456  0.00  0.00    -0.034 A 
ATOM     29  C   UNL d   1      -0.734  -4.502  12.496  0.00  0.00     0.095 A 
ATOM     30  N   UNL d   1      -0.402  -3.868  11.344  0.00  0.00    -0.368 N 
ATOM     31  H   UNL d   1      -0.068  -4.338  10.511  0.00  0.00     0.165 HD
BRANCH  27  32
ATOM     32  C   UNL d   1      -1.130  -0.911  13.476  0.00  0.00     0.151 C 
BRANCH  32  33
ATOM     33  C   UNL d   1       0.093  -0.050  13.742  0.00  0.00     0.143 C 
ATOM     34  O   UNL d   1       1.194  -0.538  13.975  0.00  0.00    -0.650 OA
BRANCH  33  35
ATOM     35  O   UNL d   1      -0.072   1.288  13.663  0.00  0.00    -0.776 OA
ATOM     36  H   UNL d   1      -0.437   1.679  14.475  0.00  0.00     0.167 HD
ENDBRANCH  33  35
ENDBRANCH  32  33
ENDBRANCH  27  32
BRANCH  28  37
ATOM     37  C   UNL d   1      -1.160  -3.863  14.915  0.00  0.00     0.051 C 
BRANCH  37  38
ATOM     38  C   UNL d   1       0.100  -3.551  15.731  0.00  0.00     0.114 C 
BRANCH  38  39
ATOM     39  C   UNL d   1      -0.134  -2.698  16.958  0.00  0.00     0.139 C 
ATOM     40  O   UNL d   1      -0.012  -1.482  16.964  0.00  0.00    -0.650 OA
BRANCH  39  41
ATOM     41  O   UNL d   1      -0.569  -3.370  18.049  0.00  0.00    -0.776 OA
ATOM     42  H   UNL d   1      -0.533  -4.340  17.939  0.00  0.00     0.167 HD
ENDBRANCH  39  41
ENDBRANCH  38  39
ENDBRANCH  37  38
ENDBRANCH  28  37
ENDBRANCH  25  26
ENDBRANCH  11  25
ENDBRANCH   7   8
ENDBRANCH   4   7
BRANCH   5  43
ATOM     43  C   UNL d   1       3.590  -3.384  13.952  0.00  0.00     0.051 C 
BRANCH  43  44
ATOM     44  C   UNL d   1       2.962  -4.710  13.567  0.00  0.00     0.114 C 
BRANCH  44  45
ATOM     45  C   UNL d   1       3.163  -4.961  12.088  0.00  0.00     0.139 C 
ATOM     46  O   UNL d   1       2.439  -4.532  11.201  0.00  0.00    -0.650 OA
BRANCH  45  47
ATOM     47  O   UNL d   1       4.202  -5.787  11.830  0.00  0.00    -0.776 OA
ATOM     48  H   UNL d   1       5.080  -5.358  11.842  0.00  0.00     0.167 HD
ENDBRANCH  45  47
ENDBRANCH  44  45
ENDBRANCH  43  44
ENDBRANCH   5  43
BRANCH   3  49
ATOM     49  C   UNL d   1       6.428  -4.811  14.948  0.00  0.00     0.151 C 
BRANCH  49  50
ATOM     50  C   UNL d   1       6.153  -6.236  14.537  0.00  0.00     0.143 C 
ATOM     51  O   UNL d   1       6.375  -6.630  13.400  0.00  0.00    -0.650 OA
BRANCH  50  52
ATOM     52  O   UNL d   1       5.659  -7.071  15.478  0.00  0.00    -0.776 OA
ATOM     53  H   UNL d   1       6.322  -7.546  16.022  0.00  0.00     0.167 HD
ENDBRANCH  50  52
ENDBRANCH  49  50
ENDBRANCH   3  49
BRANCH   1  54
ATOM     54  C   UNL d   1       8.671  -3.626  12.813  0.00  0.00     0.115 C 
BRANCH  54  55
ATOM     55  C   UNL d   1       8.849  -4.501  11.605  0.00  0.00     0.022 A 
ATOM     56  C   UNL d   1       9.746  -4.481  10.537  0.00  0.00    -0.026 A 
ATOM     57  C   UNL d   1       9.329  -5.522   9.609  0.00  0.00    -0.015 A 
ATOM     58  CA  UNL d   1       8.183  -6.093  10.154  0.00  0.00     0.040 A 
ATOM     59  N   UNL d   1       7.938  -5.492  11.359  0.00  0.00    -0.360 N 
ATOM     60  H   UNL d   1       7.157  -5.713  11.965  0.00  0.00     0.165 HD
BRANCH  56  61
ATOM     61  C   UNL d   1      10.920  -3.540  10.396  0.00  0.00     0.051 C 
BRANCH  61  62
ATOM     62  C   UNL d   1      10.609  -2.105   9.978  0.00  0.00     0.114 C 
BRANCH  62  63
ATOM     63  C   UNL d   1      10.671  -1.874   8.493  0.00  0.00     0.139 C 
ATOM     64  O   UNL d   1       9.678  -1.784   7.787  0.00  0.00    -0.650 OA
BRANCH  63  65
ATOM     65  O   UNL d   1      11.920  -1.731   8.006  0.00  0.00    -0.776 OA
ATOM     66  H   UNL d   1      12.363  -2.575   7.789  0.00  0.00     0.167 HD
ENDBRANCH  63  65
ENDBRANCH  62  63
ENDBRANCH  61  62
ENDBRANCH  56  61
BRANCH  57  67
ATOM     67  C   UNL d   1       9.942  -5.808   8.255  0.00  0.00     0.151 C 
BRANCH  67  68
ATOM     68  C   UNL d   1       9.442  -5.144   6.995  0.00  0.00     0.143 C 
ATOM     69  O   UNL d   1       9.932  -5.428   5.905  0.00  0.00    -0.650 OA
BRANCH  68  70
ATOM     70  O   UNL d   1       8.404  -4.303   7.087  0.00  0.00    -0.776 OA
ATOM     71  H   UNL d   1       7.947  -4.150   6.228  0.00  0.00     0.167 HD
ENDBRANCH  68  70
ENDBRANCH  67  68
ENDBRANCH  57  67
BRANCH  58  72
ATOM     72  C   UNL d   1       7.268  -7.168   9.686  0.00  0.00     0.221 C 
BRANCH  72  73
ATOM     73  O   UNL d   1       7.110  -8.016  10.806  0.00  0.00    -0.395 OA
ATOM     74  H   UNL d   1       6.454  -7.590  11.388  0.00  0.00     0.209 HD
ENDBRANCH  72  73
ENDBRANCH  58  72
ENDBRANCH  54  55
ENDBRANCH   1  54
TORSDOF 36
ENDMDL
MODEL 9
REMARK VINA RESULT:      -6.0     19.564     23.746
REMARK WARNING: 32 MAX_TORS EXCEEDED!!!
REMARK  36 active torsions:
REMARK  status: ('A' for Active; 'I' for Inactive)
REMARK    1  A    between atoms: O_1  and  C_2 
REMARK    2  A    between atoms: C_2  and  CA_3 
REMARK    3  A    between atoms: C_5  and  C_7 
REMARK    4  A    between atoms: C_6  and  C_9 
REMARK    5  A    between atoms: C_7  and  C_10 
REMARK    6  A    between atoms: C_8  and  C_11 
REMARK    7  A    between atoms: C_9  and  C_12 
REMARK    8  A    between atoms: C_10  and  O_14 
REMARK    9  A    between atoms: C_11  and  C_15 
REMARK   10  A    between atoms: C_15  and  C_18 
REMARK   11  A    between atoms: C_17  and  C_20 
REMARK   12  A    between atoms: C_18  and  O_23 
REMARK   13  A    between atoms: C_19  and  C_24 
REMARK   14  A    between atoms: C_20  and  C_25 
REMARK   15  A    between atoms: C_21  and  C_26 
REMARK   16  A    between atoms: C_24  and  C_27 
REMARK   17  A    between atoms: C_25  and  O_29 
REMARK   18  A    between atoms: C_26  and  C_30 
REMARK   19  A    between atoms: C_30  and  C_33 
REMARK   20  A    between atoms: C_32  and  C_35 
REMARK   21  A    between atoms: C_33  and  O_38 
REMARK   22  A    between atoms: C_34  and  C_39 
REMARK   23  A    between atoms: C_35  and  C_40 
REMARK   24  A    between atoms: C_36  and  C_41 
REMARK   25  A    between atoms: C_39  and  C_42 
REMARK   26  A    between atoms: C_40  and  O_44 
REMARK   27  A    between atoms: C_41  and  C_45 
REMARK   28  A    between atoms: C_45  and  C_48 
REMARK   29  A    between atoms: C_47  and  C_50 
REMARK   30  A    between atoms: C_48  and  O_53 
REMARK   31  A    between atoms: C_50  and  C_54 
REMARK   32  A    between atoms: C_51  and  C_55 
REMARK   33  A    between atoms: C_54  and  O_57 
REMARK   34  A    between atoms: C_55  and  C_58 
REMARK   35  A    between atoms: C_58  and  C_59 
REMARK   36  A    between atoms: C_59  and  O_61 
ROOT
ATOM      1  C   UNL d   1       5.209  -4.053  13.052  0.00  0.00     0.022 C 
ATOM      2  N   UNL d   1       5.512  -3.386  11.899  0.00  0.00    -0.361 N 
ATOM      3  C   UNL d   1       5.492  -5.400  12.832  0.00  0.00    -0.017 C 
ATOM      4  C   UNL d   1       6.146  -4.210  11.004  0.00  0.00     0.022 C 
ATOM      5  C   UNL d   1       6.185  -5.490  11.561  0.00  0.00    -0.026 C 
ATOM      6  H   UNL d   1       5.350  -2.398  11.752  0.00  0.00     0.165 HD
ENDROOT
BRANCH   4   7
ATOM      7  C   UNL d   1       6.580  -3.602   9.695  0.00  0.00     0.115 C 
BRANCH   7   8
ATOM      8  C   UNL d   1       7.947  -3.939   9.196  0.00  0.00     0.022 A 
ATOM      9  C   UNL d   1       9.224  -3.650   9.658  0.00  0.00    -0.017 A 
ATOM     10  C   UNL d   1      10.148  -4.081   8.623  0.00  0.00    -0.026 A 
ATOM     11  C   UNL d   1       9.396  -4.724   7.646  0.00  0.00     0.022 A 
ATOM     12  N   UNL d   1       8.084  -4.644   8.032  0.00  0.00    -0.361 N 
ATOM     13  H   UNL d   1       7.316  -5.040   7.504  0.00  0.00     0.165 HD
BRANCH   9  14
ATOM     14  C   UNL d   1       9.563  -2.947  10.954  0.00  0.00     0.151 C 
BRANCH  14  15
ATOM     15  C   UNL d   1      10.064  -3.863  12.061  0.00  0.00     0.143 C 
ATOM     16  O   UNL d   1      11.057  -4.576  12.035  0.00  0.00    -0.650 OA
BRANCH  15  17
ATOM     17  O   UNL d   1       9.210  -3.885  13.122  0.00  0.00    -0.776 OA
ATOM     18  H   UNL d   1       8.932  -4.779  13.409  0.00  0.00     0.167 HD
ENDBRANCH  15  17
ENDBRANCH  14  15
ENDBRANCH   9  14
BRANCH  10  19
ATOM     19  C   UNL d   1      11.643  -3.888   8.622  0.00  0.00     0.051 C 
BRANCH  19  20
ATOM     20  C   UNL d   1      12.081  -2.563   7.991  0.00  0.00     0.114 C 
BRANCH  20  21
ATOM     21  C   UNL d   1      12.123  -2.692   6.489  0.00  0.00     0.139 C 
ATOM     22  O   UNL d   1      11.289  -2.219   5.734  0.00  0.00    -0.650 OA
BRANCH  21  23
ATOM     23  O   UNL d   1      13.154  -3.441   6.039  0.00  0.00    -0.776 OA
ATOM     24  H   UNL d   1      13.195  -3.574   5.073  0.00  0.00     0.167 HD
ENDBRANCH  21  23
ENDBRANCH  20  21
ENDBRANCH  19  20
ENDBRANCH  10  19
BRANCH  11  25
ATOM     25  C   UNL d   1       9.737  -5.418   6.346  0.00  0.00     0.115 C 
BRANCH  25  26
ATOM     26  C   UNL d   1      10.647  -6.621   6.544  0.00  0.00     0.022 A 
ATOM     27  C   UNL d   1      10.399  -7.925   6.986  0.00  0.00    -0.018 A 
ATOM     28  C   UNL d   1      11.695  -8.537   7.168  0.00  0.00    -0.034 A 
ATOM     29  C   UNL d   1      12.636  -7.654   6.683  0.00  0.00     0.095 A 
ATOM     30  N   UNL d   1      12.003  -6.506   6.336  0.00  0.00    -0.368 N 
ATOM     31  H   UNL d   1      12.477  -5.659   6.048  0.00  0.00     0.165 HD
BRANCH  27  32
ATOM     32  C   UNL d   1       9.065  -8.527   7.384  0.00  0.00     0.151 C 
BRANCH  32  33
ATOM     33  C   UNL d   1       8.093  -8.912   6.281  0.00  0.00     0.143 C 
ATOM     34  O   UNL d   1       8.020 -10.058   5.849  0.00  0.00    -0.650 OA
BRANCH  33  35
ATOM     35  O   UNL d   1       7.272  -7.942   5.823  0.00  0.00    -0.776 OA
ATOM     36  H   UNL d   1       7.747  -7.169   5.475  0.00  0.00     0.167 HD
ENDBRANCH  33  35
ENDBRANCH  32  33
ENDBRANCH  27  32
BRANCH  28  37
ATOM     37  C   UNL d   1      12.044  -9.821   7.864  0.00  0.00     0.051 C 
BRANCH  37  38
ATOM     38  C   UNL d   1      11.810 -11.049   6.976  0.00  0.00     0.114 C 
BRANCH  38  39
ATOM     39  C   UNL d   1      10.625 -11.902   7.372  0.00  0.00     0.139 C 
ATOM     40  O   UNL d   1      10.362 -12.188   8.531  0.00  0.00    -0.650 OA
BRANCH  39  41
ATOM     41  O   UNL d   1       9.816 -12.270   6.351  0.00  0.00    -0.776 OA
ATOM     42  H   UNL d   1       9.648 -11.546   5.718  0.00  0.00     0.167 HD
ENDBRANCH  39  41
ENDBRANCH  38  39
ENDBRANCH  37  38
ENDBRANCH  28  37
ENDBRANCH  25  26
ENDBRANCH  11  25
ENDBRANCH   7   8
ENDBRANCH   4   7
BRANCH   5  43
ATOM     43  C   UNL d   1       6.897  -6.669  10.932  0.00  0.00     0.051 C 
BRANCH  43  44
ATOM     44  C   UNL d   1       8.368  -6.912  11.208  0.00  0.00     0.114 C 
BRANCH  44  45
ATOM     45  C   UNL d   1       8.549  -7.395  12.631  0.00  0.00     0.139 C 
ATOM     46  O   UNL d   1       9.218  -6.828  13.483  0.00  0.00    -0.650 OA
BRANCH  45  47
ATOM     47  O   UNL d   1       7.948  -8.584  12.864  0.00  0.00    -0.776 OA
ATOM     48  H   UNL d   1       6.973  -8.567  12.816  0.00  0.00     0.167 HD
ENDBRANCH  45  47
ENDBRANCH  44  45
ENDBRANCH  43  44
ENDBRANCH   5  43
BRANCH   3  49
ATOM     49  C   UNL d   1       5.149  -6.527  13.762  0.00  0.00     0.151 C 
BRANCH  49  50
ATOM     50  C   UNL d   1       5.790  -6.534  15.127  0.00  0.00     0.143 C 
ATOM     51  O   UNL d   1       5.319  -5.899  16.060  0.00  0.00    -0.650 OA
BRANCH  50  52
ATOM     52  O   UNL d   1       6.906  -7.280  15.287  0.00  0.00    -0.776 OA
ATOM     53  H   UNL d   1       7.753  -6.840  15.066  0.00  0.00     0.167 HD
ENDBRANCH  50  52
ENDBRANCH  49  50
ENDBRANCH   3  49
BRANCH   1  54
ATOM     54  C   UNL d   1       4.750  -3.273  14.253  0.00  0.00     0.115 C 
BRANCH  54  55
ATOM     55  C   UNL d   1       3.312  -3.467  14.644  0.00  0.00     0.022 A 
ATOM     56  C   UNL d   1       2.115  -2.935  14.167  0.00  0.00    -0.026 A 
ATOM     57  C   UNL d   1       1.056  -3.413  15.044  0.00  0.00    -0.015 A 
ATOM     58  CA  UNL d   1       1.678  -4.184  16.021  0.00  0.00     0.040 A 
ATOM     59  N   UNL d   1       3.017  -4.230  15.741  0.00  0.00    -0.360 N 
ATOM     60  H   UNL d   1       3.706  -4.719  16.300  0.00  0.00     0.165 HD
BRANCH  56  61
ATOM     61  C   UNL d   1       1.974  -2.030  12.965  0.00  0.00     0.051 C 
BRANCH  61  62
ATOM     62  C   UNL d   1       1.775  -0.542  13.240  0.00  0.00     0.114 C 
BRANCH  62  63
ATOM     63  C   UNL d   1       0.363  -0.066  13.036  0.00  0.00     0.139 C 
ATOM     64  O   UNL d   1      -0.455  -0.666  12.356  0.00  0.00    -0.650 OA
BRANCH  63  65
ATOM     65  O   UNL d   1       0.058   1.066  13.703  0.00  0.00    -0.776 OA
ATOM     66  H   UNL d   1       0.556   1.852  13.404  0.00  0.00     0.167 HD
ENDBRANCH  63  65
ENDBRANCH  62  63
ENDBRANCH  61  62
ENDBRANCH  56  61
BRANCH  57  67
ATOM     67  C   UNL d   1      -0.404  -3.016  14.980  0.00  0.00     0.151 C 
BRANCH  67  68
ATOM     68  C   UNL d   1      -1.012  -2.045  15.962  0.00  0.00     0.143 C 
ATOM     69  O   UNL d   1      -0.301  -1.427  16.750  0.00  0.00    -0.650 OA
BRANCH  68  70
ATOM     70  O   UNL d   1      -2.331  -1.816  15.897  0.00  0.00    -0.776 OA
ATOM     71  H   UNL d   1      -2.837  -2.561  15.497  0.00  0.00     0.167 HD
ENDBRANCH  68  70
ENDBRANCH  67  68
ENDBRANCH  57  67
BRANCH  58  72
ATOM     72  C   UNL d   1       1.166  -4.915  17.210  0.00  0.00     0.221 C 
BRANCH  72  73
ATOM     73  O   UNL d   1       2.281  -5.023  18.072  0.00  0.00    -0.395 OA
ATOM     74  H   UNL d   1       3.019  -5.364  17.532  0.00  0.00     0.209 HD
ENDBRANCH  72  73
ENDBRANCH  58  72
ENDBRANCH  54  55
ENDBRANCH   1  54
TORSDOF 36
ENDMDL
