MODEL 1
REMARK VINA RESULT:      -4.4      0.000      0.000
REMARK  2 active torsions:
REMARK  status: ('A' for Active; 'I' for Inactive)
REMARK    1  A    between atoms: C_2  and  O_1 
REMARK    2  A    between atoms: C_3  and  C_2 
ROOT
ATOM      1  C   UNL d   1      16.484  24.099 -15.422  0.00  0.00     0.213 C 
ATOM      2  O   UNL d   1      17.301  24.565 -16.188  0.00  0.00    -0.644 OA
ENDROOT
BRANCH   1   3
ATOM      3  C   UNL d   1      15.472  24.947 -14.659  0.00  0.00     0.218 C 
ATOM      4  C   UNL d   1      15.111  26.270 -15.256  0.00  0.00     0.103 C 
ATOM      5  O   UNL d   1      15.024  24.492 -13.610  0.00  0.00    -0.286 OA
ENDBRANCH   1   3
BRANCH   1   6
ATOM      6  O   UNL d   1      16.330  22.795 -15.121  0.00  0.00    -0.771 OA
ATOM      7  H   UNL d   1      16.886  22.255 -15.732  0.00  0.00     0.168 HD
ENDBRANCH   1   6
TORSDOF 2
ENDMDL
MODEL 2
REMARK VINA RESULT:      -4.4     24.611     25.560
REMARK  2 active torsions:
REMARK  status: ('A' for Active; 'I' for Inactive)
REMARK    1  A    between atoms: C_2  and  O_1 
REMARK    2  A    between atoms: C_3  and  C_2 
ROOT
ATOM      1  C   UNL d   1      17.036  30.484  10.219  0.00  0.00     0.213 C 
ATOM      2  O   UNL d   1      17.161  31.221  11.175  0.00  0.00    -0.644 OA
ENDROOT
BRANCH   1   3
ATOM      3  C   UNL d   1      18.060  30.390   9.093  0.00  0.00     0.218 C 
ATOM      4  C   UNL d   1      19.340  31.143   9.279  0.00  0.00     0.103 C 
ATOM      5  O   UNL d   1      17.769  29.710   8.113  0.00  0.00    -0.286 OA
ENDBRANCH   1   3
BRANCH   1   6
ATOM      6  O   UNL d   1      16.007  29.645   9.992  0.00  0.00    -0.771 OA
ATOM      7  H   UNL d   1      16.021  28.927  10.669  0.00  0.00     0.168 HD
ENDBRANCH   1   6
TORSDOF 2
ENDMDL
MODEL 3
REMARK VINA RESULT:      -4.4     29.777     30.705
REMARK  2 active torsions:
REMARK  status: ('A' for Active; 'I' for Inactive)
REMARK    1  A    between atoms: C_2  and  O_1 
REMARK    2  A    between atoms: C_3  and  C_2 
ROOT
ATOM      1  C   UNL d   1      16.579  26.041  15.958  0.00  0.00     0.213 C 
ATOM      2  O   UNL d   1      15.816  26.642  16.684  0.00  0.00    -0.644 OA
ENDROOT
BRANCH   1   3
ATOM      3  C   UNL d   1      17.583  26.731  15.040  0.00  0.00     0.218 C 
ATOM      4  C   UNL d   1      17.983  28.126  15.404  0.00  0.00     0.103 C 
ATOM      5  O   UNL d   1      17.992  26.102  14.068  0.00  0.00    -0.286 OA
ENDBRANCH   1   3
BRANCH   1   6
ATOM      6  O   UNL d   1      16.674  24.703  15.839  0.00  0.00    -0.771 OA
ATOM      7  H   UNL d   1      16.675  24.298  16.740  0.00  0.00     0.168 HD
ENDBRANCH   1   6
TORSDOF 2
ENDMDL
MODEL 4
REMARK VINA RESULT:      -4.4     11.188     12.148
REMARK  2 active torsions:
REMARK  status: ('A' for Active; 'I' for Inactive)
REMARK    1  A    between atoms: C_2  and  O_1 
REMARK    2  A    between atoms: C_3  and  C_2 
ROOT
ATOM      1  C   UNL d   1      11.690  19.054  -4.699  0.00  0.00     0.213 C 
ATOM      2  O   UNL d   1      11.517  17.877  -4.466  0.00  0.00    -0.644 OA
ENDROOT
BRANCH   1   3
ATOM      3  C   UNL d   1      13.053  19.654  -5.026  0.00  0.00     0.218 C 
ATOM      4  C   UNL d   1      13.130  20.544  -6.226  0.00  0.00     0.103 C 
ATOM      5  O   UNL d   1      13.993  19.368  -4.289  0.00  0.00    -0.286 OA
ENDBRANCH   1   3
BRANCH   1   6
ATOM      6  O   UNL d   1      10.739  20.009  -4.711  0.00  0.00    -0.771 OA
ATOM      7  H   UNL d   1       9.980  19.714  -4.154  0.00  0.00     0.168 HD
ENDBRANCH   1   6
TORSDOF 2
ENDMDL
MODEL 5
REMARK VINA RESULT:      -4.2     24.833     25.717
REMARK  2 active torsions:
REMARK  status: ('A' for Active; 'I' for Inactive)
REMARK    1  A    between atoms: C_2  and  O_1 
REMARK    2  A    between atoms: C_3  and  C_2 
ROOT
ATOM      1  C   UNL d   1      17.050  30.257   9.406  0.00  0.00     0.213 C 
ATOM      2  O   UNL d   1      17.332  29.911   8.278  0.00  0.00    -0.644 OA
ENDROOT
BRANCH   1   3
ATOM      3  C   UNL d   1      17.772  31.378  10.145  0.00  0.00     0.218 C 
ATOM      4  C   UNL d   1      19.128  31.757   9.640  0.00  0.00     0.103 C 
ATOM      5  O   UNL d   1      17.198  31.892  11.101  0.00  0.00    -0.286 OA
ENDBRANCH   1   3
BRANCH   1   6
ATOM      6  O   UNL d   1      16.081  29.730  10.179  0.00  0.00    -0.771 OA
ATOM      7  H   UNL d   1      15.804  28.860   9.802  0.00  0.00     0.168 HD
ENDBRANCH   1   6
TORSDOF 2
ENDMDL
MODEL 6
REMARK VINA RESULT:      -4.2     23.166     23.788
REMARK  2 active torsions:
REMARK  status: ('A' for Active; 'I' for Inactive)
REMARK    1  A    between atoms: C_2  and  O_1 
REMARK    2  A    between atoms: C_3  and  C_2 
ROOT
ATOM      1  C   UNL d   1      22.209  18.506   6.176  0.00  0.00     0.213 C 
ATOM      2  O   UNL d   1      21.450  17.858   5.486  0.00  0.00    -0.644 OA
ENDROOT
BRANCH   1   3
ATOM      3  C   UNL d   1      22.943  17.931   7.383  0.00  0.00     0.218 C 
ATOM      4  C   UNL d   1      24.421  18.153   7.444  0.00  0.00     0.103 C 
ATOM      5  O   UNL d   1      22.278  17.325   8.219  0.00  0.00    -0.286 OA
ENDBRANCH   1   3
BRANCH   1   6
ATOM      6  O   UNL d   1      22.528  19.803   6.004  0.00  0.00    -0.771 OA
ATOM      7  H   UNL d   1      23.038  20.116   6.789  0.00  0.00     0.168 HD
ENDBRANCH   1   6
TORSDOF 2
ENDMDL
MODEL 7
REMARK VINA RESULT:      -4.1     42.942     43.723
REMARK  2 active torsions:
REMARK  status: ('A' for Active; 'I' for Inactive)
REMARK    1  A    between atoms: C_2  and  O_1 
REMARK    2  A    between atoms: C_3  and  C_2 
ROOT
ATOM      1  C   UNL d   1      22.730  16.647  28.045  0.00  0.00     0.213 C 
ATOM      2  O   UNL d   1      23.113  15.790  28.812  0.00  0.00    -0.644 OA
ENDROOT
BRANCH   1   3
ATOM      3  C   UNL d   1      21.956  16.343  26.766  0.00  0.00     0.218 C 
ATOM      4  C   UNL d   1      22.211  15.017  26.121  0.00  0.00     0.103 C 
ATOM      5  O   UNL d   1      21.180  17.200  26.351  0.00  0.00    -0.286 OA
ENDBRANCH   1   3
BRANCH   1   6
ATOM      6  O   UNL d   1      22.912  17.975  28.181  0.00  0.00    -0.771 OA
ATOM      7  H   UNL d   1      22.450  18.281  28.998  0.00  0.00     0.168 HD
ENDBRANCH   1   6
TORSDOF 2
ENDMDL
MODEL 8
REMARK VINA RESULT:      -4.0     12.345     12.900
REMARK  2 active torsions:
REMARK  status: ('A' for Active; 'I' for Inactive)
REMARK    1  A    between atoms: C_2  and  O_1 
REMARK    2  A    between atoms: C_3  and  C_2 
ROOT
ATOM      1  C   UNL d   1      10.595  18.621  -5.030  0.00  0.00     0.213 C 
ATOM      2  O   UNL d   1      11.431  17.998  -4.412  0.00  0.00    -0.644 OA
ENDROOT
BRANCH   1   3
ATOM      3  C   UNL d   1       9.815  18.042  -6.206  0.00  0.00     0.218 C 
ATOM      4  C   UNL d   1       8.328  18.203  -6.176  0.00  0.00     0.103 C 
ATOM      5  O   UNL d   1      10.454  17.482  -7.093  0.00  0.00    -0.286 OA
ENDBRANCH   1   3
BRANCH   1   6
ATOM      6  O   UNL d   1      10.218  19.893  -4.796  0.00  0.00    -0.771 OA
ATOM      7  H   UNL d   1      10.132  20.030  -3.822  0.00  0.00     0.168 HD
ENDBRANCH   1   6
TORSDOF 2
ENDMDL
MODEL 9
REMARK VINA RESULT:      -4.0     21.449     22.222
REMARK  2 active torsions:
REMARK  status: ('A' for Active; 'I' for Inactive)
REMARK    1  A    between atoms: C_2  and  O_1 
REMARK    2  A    between atoms: C_3  and  C_2 
ROOT
ATOM      1  C   UNL d   1      19.505  20.317   5.840  0.00  0.00     0.213 C 
ATOM      2  O   UNL d   1      18.591  19.940   5.137  0.00  0.00    -0.644 OA
ENDROOT
BRANCH   1   3
ATOM      3  C   UNL d   1      20.654  19.414   6.278  0.00  0.00     0.218 C 
ATOM      4  C   UNL d   1      21.321  19.750   7.574  0.00  0.00     0.103 C 
ATOM      5  O   UNL d   1      20.955  18.478   5.543  0.00  0.00    -0.286 OA
ENDBRANCH   1   3
BRANCH   1   6
ATOM      6  O   UNL d   1      19.663  21.557   6.341  0.00  0.00    -0.771 OA
ATOM      7  H   UNL d   1      19.223  22.205   5.741  0.00  0.00     0.168 HD
ENDBRANCH   1   6
TORSDOF 2
ENDMDL
