MODEL 1
REMARK VINA RESULT:      -7.6      0.000      0.000
REMARK  29 active torsions:
REMARK  status: ('A' for Active; 'I' for Inactive)
REMARK    1  A    between atoms: C_2  and  C_3 
REMARK    2  A    between atoms: C_3  and  C_5 
REMARK    3  A    between atoms: C_5  and  S_6 
REMARK    4  A    between atoms: S_6  and  C_8 
REMARK    5  A    between atoms: C_8  and  C_9 
REMARK    6  A    between atoms: C_9  and  N_10 
REMARK       I    between atoms: N_10  and  C_11 
REMARK    7  A    between atoms: C_11  and  C_12 
REMARK    8  A    between atoms: C_12  and  C_14 
REMARK    9  A    between atoms: C_14  and  N_15 
REMARK       I    between atoms: N_15  and  C_16 
REMARK   10  A    between atoms: C_16  and  C_17 
REMARK   11  A    between atoms: C_17  and  O_20 
REMARK   12  A    between atoms: C_17  and  C_19 
REMARK   13  A    between atoms: C_19  and  C_21 
REMARK   14  A    between atoms: C_21  and  O_24 
REMARK   15  A    between atoms: O_24  and  P_25 
REMARK   16  A    between atoms: P_25  and  O_28 
REMARK   17  A    between atoms: P_25  and  O_26 
REMARK   18  A    between atoms: O_26  and  P_29 
REMARK   19  A    between atoms: P_29  and  O_32 
REMARK   20  A    between atoms: P_29  and  O_30 
REMARK   21  A    between atoms: O_30  and  C_33 
REMARK   22  A    between atoms: C_34  and  C_33 
REMARK   23  A    between atoms: C_36  and  O_38 
REMARK   24  A    between atoms: C_37  and  N_40 
REMARK   25  A    between atoms: O_38  and  P_41 
REMARK   26  A    between atoms: C_39  and  O_42 
REMARK   27  A    between atoms: P_41  and  O_46 
REMARK   28  A    between atoms: P_41  and  O_47 
REMARK   29  A    between atoms: C_52  and  N_54 
ROOT
ATOM      1  O   UNL d   1     -23.730  -8.139 -11.746  0.00  0.00    -0.195 OA
ENDROOT
BRANCH   1   2
ATOM      2  P   UNL d   1     -22.976  -6.821 -10.788  0.00  0.00     0.401 P 
ATOM      3  O   UNL d   1     -23.764  -5.612 -10.345  0.00  0.00    -0.631 OA
BRANCH   2   4
ATOM      4  O   UNL d   1     -21.440  -6.359 -11.065  0.00  0.00    -0.296 OA
BRANCH   4   5
ATOM      5  C   UNL d   1     -20.984  -6.344 -12.459  0.00  0.00     0.192 C 
BRANCH   5   6
ATOM      6  C   UNL d   1     -20.329  -7.623 -13.185  0.00  0.00     0.009 C 
ATOM      7  C   UNL d   1     -19.098  -7.233 -14.013  0.00  0.00     0.020 C 
ATOM      8  C   UNL d   1     -21.310  -8.358 -14.147  0.00  0.00     0.020 C 
BRANCH   6   9
ATOM      9  C   UNL d   1     -19.909  -8.710 -12.108  0.00  0.00     0.219 C 
BRANCH   9  10
ATOM     10  C   UNL d   1     -19.847 -10.154 -12.644  0.00  0.00     0.247 C 
ATOM     11  N   UNL d   1     -20.700 -11.067 -12.058  0.00  0.00    -0.358 N 
ATOM     12  H   UNL d   1     -21.378 -10.745 -11.378  0.00  0.00     0.162 HD
ATOM     13  O   UNL d   1     -19.062 -10.458 -13.544  0.00  0.00    -0.271 OA
BRANCH  11  14
ATOM     14  C   UNL d   1     -20.841 -12.399 -12.627  0.00  0.00     0.132 C 
BRANCH  14  15
ATOM     15  C   UNL d   1     -22.272 -12.908 -12.619  0.00  0.00     0.122 C 
BRANCH  15  16
ATOM     16  C   UNL d   1     -23.027 -12.249 -13.755  0.00  0.00     0.219 C 
ATOM     17  N   UNL d   1     -24.397 -12.345 -13.663  0.00  0.00    -0.360 N 
ATOM     18  H   UNL d   1     -24.812 -12.561 -12.764  0.00  0.00     0.162 HD
ATOM     19  O   UNL d   1     -22.445 -11.737 -14.708  0.00  0.00    -0.274 OA
BRANCH  17  20
ATOM     20  C   UNL d   1     -25.261 -11.768 -14.683  0.00  0.00     0.133 C 
BRANCH  20  21
ATOM     21  C   UNL d   1     -25.975 -12.809 -15.555  0.00  0.00     0.102 C 
BRANCH  21  22
ATOM     22  S   UNL d   1     -25.821 -14.482 -14.841  0.00  0.00    -0.091 SA
BRANCH  22  23
ATOM     23  C   UNL d   1     -27.221 -14.491 -13.759  0.00  0.00     0.186 C 
ATOM     24  O   UNL d   1     -27.387 -13.614 -12.919  0.00  0.00    -0.286 OA
BRANCH  23  25
ATOM     25  C   UNL d   1     -28.137 -15.687 -13.951  0.00  0.00     0.094 C 
BRANCH  25  26
ATOM     26  C   UNL d   1     -29.366 -15.380 -14.823  0.00  0.00    -0.015 C 
ATOM     27  C   UNL d   1     -29.396 -13.911 -15.248  0.00  0.00     0.010 C 
ATOM     28  C   UNL d   1     -29.372 -16.266 -16.073  0.00  0.00     0.010 C 
ENDBRANCH  25  26
ENDBRANCH  23  25
ENDBRANCH  22  23
ENDBRANCH  21  22
ENDBRANCH  20  21
ENDBRANCH  17  20
ENDBRANCH  15  16
ENDBRANCH  14  15
ENDBRANCH  11  14
ENDBRANCH   9  10
BRANCH   9  29
ATOM     29  O   UNL d   1     -18.635  -8.388 -11.535  0.00  0.00    -0.385 OA
ATOM     30  H   UNL d   1     -18.768  -8.303 -10.570  0.00  0.00     0.210 HD
ENDBRANCH   9  29
ENDBRANCH   6   9
ENDBRANCH   5   6
ENDBRANCH   4   5
ENDBRANCH   2   4
BRANCH   2  31
ATOM     31  O   UNL d   1     -22.796  -7.638  -9.406  0.00  0.00    -0.307 OA
ATOM     32  H   UNL d   1     -23.548  -7.335  -8.842  0.00  0.00     0.222 HD
ENDBRANCH   2  31
ENDBRANCH   1   2
BRANCH   1  33
ATOM     33  P   UNL d   1     -24.136  -9.271 -10.502  0.00  0.00     0.401 P 
ATOM     34  O   UNL d   1     -24.355 -10.352 -11.553  0.00  0.00    -0.631 OA
BRANCH  33  35
ATOM     35  O   UNL d   1     -25.428  -8.371 -10.140  0.00  0.00    -0.307 OA
ATOM     36  H   UNL d   1     -25.946  -8.072 -10.900  0.00  0.00     0.222 HD
ENDBRANCH  33  35
BRANCH  33  37
ATOM     37  O   UNL d   1     -24.541 -10.403  -9.258  0.00  0.00    -0.294 OA
BRANCH  37  38
ATOM     38  C   UNL d   1     -24.912 -11.762  -9.721  0.00  0.00     0.215 C 
BRANCH  38  39
ATOM     39  C   UNL d   1     -24.454 -12.955  -8.823  0.00  0.00     0.180 C 
ATOM     40  O   UNL d   1     -23.004 -12.950  -8.785  0.00  0.00    -0.353 OA
ATOM     41  C   UNL d   1     -22.554 -13.313  -7.465  0.00  0.00     0.262 C 
ATOM     42  C   UNL d   1     -23.760 -14.014  -6.838  0.00  0.00     0.199 C 
ATOM     43  C   UNL d   1     -24.923 -13.149  -7.353  0.00  0.00     0.197 C 
BRANCH  41  44
ATOM     44  N   UNL d   1     -22.077 -12.116  -6.800  0.00  0.00    -0.294 N 
ATOM     45  C   UNL d   1     -22.231 -11.839  -5.460  0.00  0.00     0.214 A 
ATOM     46  N   UNL d   1     -21.748 -10.655  -5.146  0.00  0.00    -0.236 NA
ATOM     47  C   UNL d   1     -21.265 -10.146  -6.337  0.00  0.00     0.144 A 
ATOM     48  C   UNL d   1     -21.458 -11.052  -7.359  0.00  0.00     0.166 A 
ATOM     49  C   UNL d   1     -20.636  -8.931  -6.655  0.00  0.00     0.135 A 
ATOM     50  N   UNL d   1     -21.075 -10.878  -8.647  0.00  0.00    -0.222 NA
ATOM     51  C   UNL d   1     -20.479  -9.695  -8.836  0.00  0.00     0.237 A 
ATOM     52  N   UNL d   1     -20.232  -8.729  -7.926  0.00  0.00    -0.228 NA
BRANCH  49  53
ATOM     53  N   UNL d   1     -20.390  -7.930  -5.727  0.00  0.00    -0.285 NA
ATOM     54  H   UNL d   1     -20.048  -7.079  -6.151  0.00  0.00     0.125 HD
ATOM     55  H   UNL d   1     -19.920  -8.266  -4.892  0.00  0.00     0.125 HD
ENDBRANCH  49  53
ENDBRANCH  41  44
BRANCH  42  56
ATOM     56  O   UNL d   1     -23.913 -15.372  -7.319  0.00  0.00    -0.388 OA
ATOM     57  H   UNL d   1     -23.058 -15.661  -7.698  0.00  0.00     0.210 HD
ENDBRANCH  42  56
BRANCH  43  58
ATOM     58  O   UNL d   1     -26.151 -13.873  -7.230  0.00  0.00    -0.286 OA
BRANCH  58  59
ATOM     59  P   UNL d   1     -26.642 -14.435  -5.669  0.00  0.00     0.391 P 
ATOM     60  O   UNL d   1     -27.081 -14.936  -4.271  0.00  0.00    -0.632 OA
BRANCH  59  61
ATOM     61  O   UNL d   1     -26.912 -12.843  -5.416  0.00  0.00    -0.307 OA
ATOM     62  H   UNL d   1     -26.095 -12.478  -5.032  0.00  0.00     0.222 HD
ENDBRANCH  59  61
BRANCH  59  63
ATOM     63  O   UNL d   1     -28.078 -14.725  -6.414  0.00  0.00    -0.307 OA
ATOM     64  H   UNL d   1     -28.017 -14.496  -7.362  0.00  0.00     0.222 HD
ENDBRANCH  59  63
ENDBRANCH  58  59
ENDBRANCH  43  58
ENDBRANCH  38  39
ENDBRANCH  37  38
ENDBRANCH  33  37
ENDBRANCH   1  33
TORSDOF 29
ENDMDL
MODEL 2
REMARK VINA RESULT:      -7.5      1.741      2.672
REMARK  29 active torsions:
REMARK  status: ('A' for Active; 'I' for Inactive)
REMARK    1  A    between atoms: C_2  and  C_3 
REMARK    2  A    between atoms: C_3  and  C_5 
REMARK    3  A    between atoms: C_5  and  S_6 
REMARK    4  A    between atoms: S_6  and  C_8 
REMARK    5  A    between atoms: C_8  and  C_9 
REMARK    6  A    between atoms: C_9  and  N_10 
REMARK       I    between atoms: N_10  and  C_11 
REMARK    7  A    between atoms: C_11  and  C_12 
REMARK    8  A    between atoms: C_12  and  C_14 
REMARK    9  A    between atoms: C_14  and  N_15 
REMARK       I    between atoms: N_15  and  C_16 
REMARK   10  A    between atoms: C_16  and  C_17 
REMARK   11  A    between atoms: C_17  and  O_20 
REMARK   12  A    between atoms: C_17  and  C_19 
REMARK   13  A    between atoms: C_19  and  C_21 
REMARK   14  A    between atoms: C_21  and  O_24 
REMARK   15  A    between atoms: O_24  and  P_25 
REMARK   16  A    between atoms: P_25  and  O_28 
REMARK   17  A    between atoms: P_25  and  O_26 
REMARK   18  A    between atoms: O_26  and  P_29 
REMARK   19  A    between atoms: P_29  and  O_32 
REMARK   20  A    between atoms: P_29  and  O_30 
REMARK   21  A    between atoms: O_30  and  C_33 
REMARK   22  A    between atoms: C_34  and  C_33 
REMARK   23  A    between atoms: C_36  and  O_38 
REMARK   24  A    between atoms: C_37  and  N_40 
REMARK   25  A    between atoms: O_38  and  P_41 
REMARK   26  A    between atoms: C_39  and  O_42 
REMARK   27  A    between atoms: P_41  and  O_46 
REMARK   28  A    between atoms: P_41  and  O_47 
REMARK   29  A    between atoms: C_52  and  N_54 
ROOT
ATOM      1  O   UNL d   1     -24.084  -9.057  -8.545  0.00  0.00    -0.195 OA
ENDROOT
BRANCH   1   2
ATOM      2  P   UNL d   1     -24.091  -8.293 -10.169  0.00  0.00     0.401 P 
ATOM      3  O   UNL d   1     -24.480  -9.065 -11.408  0.00  0.00    -0.631 OA
BRANCH   2   4
ATOM      4  O   UNL d   1     -22.962  -7.195 -10.582  0.00  0.00    -0.296 OA
BRANCH   4   5
ATOM      5  C   UNL d   1     -22.845  -6.856 -12.004  0.00  0.00     0.192 C 
BRANCH   5   6
ATOM      6  C   UNL d   1     -21.689  -7.447 -12.958  0.00  0.00     0.009 C 
ATOM      7  C   UNL d   1     -20.601  -6.404 -13.239  0.00  0.00     0.020 C 
ATOM      8  C   UNL d   1     -22.219  -7.936 -14.340  0.00  0.00     0.020 C 
BRANCH   6   9
ATOM      9  C   UNL d   1     -21.027  -8.724 -12.289  0.00  0.00     0.219 C 
BRANCH   9  10
ATOM     10  C   UNL d   1     -21.355 -10.058 -12.991  0.00  0.00     0.247 C 
ATOM     11  N   UNL d   1     -22.508 -10.700 -12.588  0.00  0.00    -0.358 N 
ATOM     12  H   UNL d   1     -23.126 -10.241 -11.929  0.00  0.00     0.162 HD
ATOM     13  O   UNL d   1     -20.606 -10.514 -13.856  0.00  0.00    -0.271 OA
BRANCH  11  14
ATOM     14  C   UNL d   1     -22.989 -11.859 -13.324  0.00  0.00     0.132 C 
BRANCH  14  15
ATOM     15  C   UNL d   1     -24.500 -12.012 -13.284  0.00  0.00     0.122 C 
BRANCH  15  16
ATOM     16  C   UNL d   1     -25.025 -12.005 -14.705  0.00  0.00     0.219 C 
ATOM     17  N   UNL d   1     -25.385 -13.243 -15.188  0.00  0.00    -0.360 N 
ATOM     18  H   UNL d   1     -25.559 -13.993 -14.529  0.00  0.00     0.162 HD
ATOM     19  O   UNL d   1     -25.055 -10.978 -15.379  0.00  0.00    -0.274 OA
BRANCH  17  20
ATOM     20  C   UNL d   1     -25.900 -13.401 -16.541  0.00  0.00     0.133 C 
BRANCH  20  21
ATOM     21  C   UNL d   1     -27.144 -14.294 -16.632  0.00  0.00     0.102 C 
BRANCH  21  22
ATOM     22  S   UNL d   1     -28.526 -13.599 -15.663  0.00  0.00    -0.091 SA
BRANCH  22  23
ATOM     23  C   UNL d   1     -29.585 -15.013 -15.568  0.00  0.00     0.186 C 
ATOM     24  O   UNL d   1     -30.782 -14.936 -15.819  0.00  0.00    -0.286 OA
BRANCH  23  25
ATOM     25  C   UNL d   1     -28.879 -16.278 -15.113  0.00  0.00     0.094 C 
BRANCH  25  26
ATOM     26  C   UNL d   1     -28.467 -16.248 -13.632  0.00  0.00    -0.015 C 
ATOM     27  C   UNL d   1     -29.321 -17.203 -12.795  0.00  0.00     0.010 C 
ATOM     28  C   UNL d   1     -26.990 -16.627 -13.477  0.00  0.00     0.010 C 
ENDBRANCH  25  26
ENDBRANCH  23  25
ENDBRANCH  22  23
ENDBRANCH  21  22
ENDBRANCH  20  21
ENDBRANCH  17  20
ENDBRANCH  15  16
ENDBRANCH  14  15
ENDBRANCH  11  14
ENDBRANCH   9  10
BRANCH   9  29
ATOM     29  O   UNL d   1     -19.602  -8.585 -12.234  0.00  0.00    -0.385 OA
ATOM     30  H   UNL d   1     -19.335  -8.059 -13.013  0.00  0.00     0.210 HD
ENDBRANCH   9  29
ENDBRANCH   6   9
ENDBRANCH   5   6
ENDBRANCH   4   5
ENDBRANCH   2   4
BRANCH   2  31
ATOM     31  O   UNL d   1     -25.371  -7.333  -9.948  0.00  0.00    -0.307 OA
ATOM     32  H   UNL d   1     -26.119  -7.956  -9.779  0.00  0.00     0.222 HD
ENDBRANCH   2  31
ENDBRANCH   1   2
BRANCH   1  33
ATOM     33  P   UNL d   1     -24.733 -10.620  -8.903  0.00  0.00     0.401 P 
ATOM     34  O   UNL d   1     -24.695 -10.978  -7.423  0.00  0.00    -0.631 OA
BRANCH  33  35
ATOM     35  O   UNL d   1     -23.393 -10.956  -9.742  0.00  0.00    -0.307 OA
ATOM     36  H   UNL d   1     -23.363 -10.584 -10.635  0.00  0.00     0.222 HD
ENDBRANCH  33  35
BRANCH  33  37
ATOM     37  O   UNL d   1     -25.382 -12.183  -9.262  0.00  0.00    -0.294 OA
BRANCH  37  38
ATOM     38  C   UNL d   1     -24.399 -13.205  -9.691  0.00  0.00     0.215 C 
BRANCH  38  39
ATOM     39  C   UNL d   1     -24.000 -14.280  -8.631  0.00  0.00     0.180 C 
ATOM     40  O   UNL d   1     -22.552 -14.325  -8.567  0.00  0.00    -0.353 OA
ATOM     41  C   UNL d   1     -22.134 -14.520  -7.202  0.00  0.00     0.262 C 
ATOM     42  C   UNL d   1     -23.375 -15.083  -6.507  0.00  0.00     0.199 C 
ATOM     43  C   UNL d   1     -24.496 -14.254  -7.157  0.00  0.00     0.197 C 
BRANCH  41  44
ATOM     44  N   UNL d   1     -21.619 -13.262  -6.697  0.00  0.00    -0.294 N 
ATOM     45  C   UNL d   1     -21.353 -12.149  -7.464  0.00  0.00     0.214 A 
ATOM     46  N   UNL d   1     -20.842 -11.171  -6.746  0.00  0.00    -0.236 NA
ATOM     47  C   UNL d   1     -20.773 -11.677  -5.462  0.00  0.00     0.144 A 
ATOM     48  C   UNL d   1     -21.263 -12.966  -5.427  0.00  0.00     0.166 A 
ATOM     49  C   UNL d   1     -20.321 -11.120  -4.254  0.00  0.00     0.135 A 
ATOM     50  N   UNL d   1     -21.363 -13.739  -4.320  0.00  0.00    -0.222 NA
ATOM     51  C   UNL d   1     -20.916 -13.110  -3.227  0.00  0.00     0.237 A 
ATOM     52  N   UNL d   1     -20.417 -11.859  -3.129  0.00  0.00    -0.228 NA
BRANCH  49  53
ATOM     53  N   UNL d   1     -19.797  -9.840  -4.149  0.00  0.00    -0.285 NA
ATOM     54  H   UNL d   1     -19.601  -9.423  -5.049  0.00  0.00     0.125 HD
ATOM     55  H   UNL d   1     -19.093  -9.756  -3.423  0.00  0.00     0.125 HD
ENDBRANCH  49  53
ENDBRANCH  41  44
BRANCH  42  56
ATOM     56  O   UNL d   1     -23.575 -16.487  -6.802  0.00  0.00    -0.388 OA
ATOM     57  H   UNL d   1     -24.295 -16.563  -7.461  0.00  0.00     0.210 HD
ENDBRANCH  42  56
BRANCH  43  58
ATOM     58  O   UNL d   1     -25.753 -14.908  -6.959  0.00  0.00    -0.286 OA
BRANCH  58  59
ATOM     59  P   UNL d   1     -26.986 -14.101  -6.053  0.00  0.00     0.391 P 
ATOM     60  O   UNL d   1     -28.091 -13.379  -5.241  0.00  0.00    -0.632 OA
BRANCH  59  61
ATOM     61  O   UNL d   1     -26.420 -15.046  -4.846  0.00  0.00    -0.307 OA
ATOM     62  H   UNL d   1     -26.152 -14.449  -4.126  0.00  0.00     0.222 HD
ENDBRANCH  59  61
BRANCH  59  63
ATOM     63  O   UNL d   1     -25.852 -12.924  -5.882  0.00  0.00    -0.307 OA
ATOM     64  H   UNL d   1     -26.240 -12.143  -5.441  0.00  0.00     0.222 HD
ENDBRANCH  59  63
ENDBRANCH  58  59
ENDBRANCH  43  58
ENDBRANCH  38  39
ENDBRANCH  37  38
ENDBRANCH  33  37
ENDBRANCH   1  33
TORSDOF 29
ENDMDL
MODEL 3
REMARK VINA RESULT:      -7.4      1.720      2.402
REMARK  29 active torsions:
REMARK  status: ('A' for Active; 'I' for Inactive)
REMARK    1  A    between atoms: C_2  and  C_3 
REMARK    2  A    between atoms: C_3  and  C_5 
REMARK    3  A    between atoms: C_5  and  S_6 
REMARK    4  A    between atoms: S_6  and  C_8 
REMARK    5  A    between atoms: C_8  and  C_9 
REMARK    6  A    between atoms: C_9  and  N_10 
REMARK       I    between atoms: N_10  and  C_11 
REMARK    7  A    between atoms: C_11  and  C_12 
REMARK    8  A    between atoms: C_12  and  C_14 
REMARK    9  A    between atoms: C_14  and  N_15 
REMARK       I    between atoms: N_15  and  C_16 
REMARK   10  A    between atoms: C_16  and  C_17 
REMARK   11  A    between atoms: C_17  and  O_20 
REMARK   12  A    between atoms: C_17  and  C_19 
REMARK   13  A    between atoms: C_19  and  C_21 
REMARK   14  A    between atoms: C_21  and  O_24 
REMARK   15  A    between atoms: O_24  and  P_25 
REMARK   16  A    between atoms: P_25  and  O_28 
REMARK   17  A    between atoms: P_25  and  O_26 
REMARK   18  A    between atoms: O_26  and  P_29 
REMARK   19  A    between atoms: P_29  and  O_32 
REMARK   20  A    between atoms: P_29  and  O_30 
REMARK   21  A    between atoms: O_30  and  C_33 
REMARK   22  A    between atoms: C_34  and  C_33 
REMARK   23  A    between atoms: C_36  and  O_38 
REMARK   24  A    between atoms: C_37  and  N_40 
REMARK   25  A    between atoms: O_38  and  P_41 
REMARK   26  A    between atoms: C_39  and  O_42 
REMARK   27  A    between atoms: P_41  and  O_46 
REMARK   28  A    between atoms: P_41  and  O_47 
REMARK   29  A    between atoms: C_52  and  N_54 
ROOT
ATOM      1  O   UNL d   1     -23.854  -7.110  -9.725  0.00  0.00    -0.195 OA
ENDROOT
BRANCH   1   2
ATOM      2  P   UNL d   1     -22.097  -6.745  -9.771  0.00  0.00     0.401 P 
ATOM      3  O   UNL d   1     -21.398  -6.058  -8.622  0.00  0.00    -0.631 OA
BRANCH   2   4
ATOM      4  O   UNL d   1     -21.372  -6.292 -11.156  0.00  0.00    -0.296 OA
BRANCH   4   5
ATOM      5  C   UNL d   1     -20.421  -7.234 -11.756  0.00  0.00     0.192 C 
BRANCH   5   6
ATOM      6  C   UNL d   1     -20.782  -8.168 -13.017  0.00  0.00     0.009 C 
ATOM      7  C   UNL d   1     -22.162  -7.828 -13.594  0.00  0.00     0.020 C 
ATOM      8  C   UNL d   1     -20.793  -9.689 -12.677  0.00  0.00     0.020 C 
BRANCH   6   9
ATOM      9  C   UNL d   1     -19.687  -8.002 -14.153  0.00  0.00     0.219 C 
BRANCH   9  10
ATOM     10  C   UNL d   1     -19.725  -9.091 -15.244  0.00  0.00     0.247 C 
ATOM     11  N   UNL d   1     -20.783  -9.042 -16.128  0.00  0.00    -0.358 N 
ATOM     12  H   UNL d   1     -21.429  -8.262 -16.085  0.00  0.00     0.162 HD
ATOM     13  O   UNL d   1     -18.852  -9.958 -15.299  0.00  0.00    -0.271 OA
BRANCH  11  14
ATOM     14  C   UNL d   1     -20.796  -9.911 -17.296  0.00  0.00     0.132 C 
BRANCH  14  15
ATOM     15  C   UNL d   1     -21.657 -11.149 -17.114  0.00  0.00     0.122 C 
BRANCH  15  16
ATOM     16  C   UNL d   1     -22.706 -10.859 -16.060  0.00  0.00     0.219 C 
ATOM     17  N   UNL d   1     -22.776 -11.794 -15.052  0.00  0.00    -0.360 N 
ATOM     18  H   UNL d   1     -21.988 -12.414 -14.905  0.00  0.00     0.162 HD
ATOM     19  O   UNL d   1     -23.469  -9.901 -16.152  0.00  0.00    -0.274 OA
BRANCH  17  20
ATOM     20  C   UNL d   1     -23.740 -11.660 -13.969  0.00  0.00     0.133 C 
BRANCH  20  21
ATOM     21  C   UNL d   1     -25.096 -12.316 -14.258  0.00  0.00     0.102 C 
BRANCH  21  22
ATOM     22  S   UNL d   1     -25.207 -13.965 -13.484  0.00  0.00    -0.091 SA
BRANCH  22  23
ATOM     23  C   UNL d   1     -26.889 -13.941 -12.934  0.00  0.00     0.186 C 
ATOM     24  O   UNL d   1     -27.256 -13.201 -12.029  0.00  0.00    -0.286 OA
BRANCH  23  25
ATOM     25  C   UNL d   1     -27.784 -14.935 -13.653  0.00  0.00     0.094 C 
BRANCH  25  26
ATOM     26  C   UNL d   1     -28.792 -14.270 -14.605  0.00  0.00    -0.015 C 
ATOM     27  C   UNL d   1     -28.083 -13.516 -15.732  0.00  0.00     0.010 C 
ATOM     28  C   UNL d   1     -29.729 -15.320 -15.214  0.00  0.00     0.010 C 
ENDBRANCH  25  26
ENDBRANCH  23  25
ENDBRANCH  22  23
ENDBRANCH  21  22
ENDBRANCH  20  21
ENDBRANCH  17  20
ENDBRANCH  15  16
ENDBRANCH  14  15
ENDBRANCH  11  14
ENDBRANCH   9  10
BRANCH   9  29
ATOM     29  O   UNL d   1     -19.808  -6.724 -14.790  0.00  0.00    -0.385 OA
ATOM     30  H   UNL d   1     -20.296  -6.866 -15.625  0.00  0.00     0.210 HD
ENDBRANCH   9  29
ENDBRANCH   6   9
ENDBRANCH   5   6
ENDBRANCH   4   5
ENDBRANCH   2   4
BRANCH   2  31
ATOM     31  O   UNL d   1     -21.560  -8.264  -9.638  0.00  0.00    -0.307 OA
ATOM     32  H   UNL d   1     -21.179  -8.310  -8.729  0.00  0.00     0.222 HD
ENDBRANCH   2  31
ENDBRANCH   1   2
BRANCH   1  33
ATOM     33  P   UNL d   1     -23.853  -8.817 -10.007  0.00  0.00     0.401 P 
ATOM     34  O   UNL d   1     -25.105  -8.679 -10.863  0.00  0.00    -0.631 OA
BRANCH  33  35
ATOM     35  O   UNL d   1     -24.104  -9.052  -8.428  0.00  0.00    -0.307 OA
ATOM     36  H   UNL d   1     -24.747  -9.742  -8.213  0.00  0.00     0.222 HD
ENDBRANCH  33  35
BRANCH  33  37
ATOM     37  O   UNL d   1     -23.851 -10.523 -10.290  0.00  0.00    -0.294 OA
BRANCH  37  38
ATOM     38  C   UNL d   1     -24.865 -11.300  -9.538  0.00  0.00     0.215 C 
BRANCH  38  39
ATOM     39  C   UNL d   1     -24.393 -12.656  -8.924  0.00  0.00     0.180 C 
ATOM     40  O   UNL d   1     -22.946 -12.706  -9.019  0.00  0.00    -0.353 OA
ATOM     41  C   UNL d   1     -22.405 -13.326  -7.838  0.00  0.00     0.262 C 
ATOM     42  C   UNL d   1     -23.586 -14.094  -7.242  0.00  0.00     0.199 C 
ATOM     43  C   UNL d   1     -24.745 -13.109  -7.478  0.00  0.00     0.197 C 
BRANCH  41  44
ATOM     44  N   UNL d   1     -21.815 -12.293  -7.009  0.00  0.00    -0.294 N 
ATOM     45  C   UNL d   1     -21.515 -11.015  -7.427  0.00  0.00     0.214 A 
ATOM     46  N   UNL d   1     -20.937 -10.312  -6.477  0.00  0.00    -0.236 NA
ATOM     47  C   UNL d   1     -20.858 -11.175  -5.400  0.00  0.00     0.144 A 
ATOM     48  C   UNL d   1     -21.410 -12.398  -5.723  0.00  0.00     0.166 A 
ATOM     49  C   UNL d   1     -20.346 -11.016  -4.101  0.00  0.00     0.135 A 
ATOM     50  N   UNL d   1     -21.518 -13.457  -4.887  0.00  0.00    -0.222 NA
ATOM     51  C   UNL d   1     -21.010 -13.195  -3.677  0.00  0.00     0.237 A 
ATOM     52  N   UNL d   1     -20.447 -12.048  -3.238  0.00  0.00    -0.228 NA
BRANCH  49  53
ATOM     53  N   UNL d   1     -19.757  -9.845  -3.648  0.00  0.00    -0.285 NA
ATOM     54  H   UNL d   1     -19.618  -9.839  -2.647  0.00  0.00     0.125 HD
ATOM     55  H   UNL d   1     -20.143  -9.011  -4.079  0.00  0.00     0.125 HD
ENDBRANCH  49  53
ENDBRANCH  41  44
BRANCH  42  56
ATOM     56  O   UNL d   1     -23.847 -15.330  -7.951  0.00  0.00    -0.388 OA
ATOM     57  H   UNL d   1     -24.605 -15.776  -7.521  0.00  0.00     0.210 HD
ENDBRANCH  42  56
BRANCH  43  58
ATOM     58  O   UNL d   1     -25.992 -13.803  -7.379  0.00  0.00    -0.286 OA
BRANCH  58  59
ATOM     59  P   UNL d   1     -26.525 -14.355  -5.828  0.00  0.00     0.391 P 
ATOM     60  O   UNL d   1     -27.001 -14.848  -4.439  0.00  0.00    -0.632 OA
BRANCH  59  61
ATOM     61  O   UNL d   1     -26.703 -12.753  -5.556  0.00  0.00    -0.307 OA
ATOM     62  H   UNL d   1     -27.632 -12.539  -5.748  0.00  0.00     0.222 HD
ENDBRANCH  59  61
BRANCH  59  63
ATOM     63  O   UNL d   1     -27.971 -14.552  -6.585  0.00  0.00    -0.307 OA
ATOM     64  H   UNL d   1     -28.596 -13.857  -6.301  0.00  0.00     0.222 HD
ENDBRANCH  59  63
ENDBRANCH  58  59
ENDBRANCH  43  58
ENDBRANCH  38  39
ENDBRANCH  37  38
ENDBRANCH  33  37
ENDBRANCH   1  33
TORSDOF 29
ENDMDL
MODEL 4
REMARK VINA RESULT:      -7.3      3.579      5.354
REMARK  29 active torsions:
REMARK  status: ('A' for Active; 'I' for Inactive)
REMARK    1  A    between atoms: C_2  and  C_3 
REMARK    2  A    between atoms: C_3  and  C_5 
REMARK    3  A    between atoms: C_5  and  S_6 
REMARK    4  A    between atoms: S_6  and  C_8 
REMARK    5  A    between atoms: C_8  and  C_9 
REMARK    6  A    between atoms: C_9  and  N_10 
REMARK       I    between atoms: N_10  and  C_11 
REMARK    7  A    between atoms: C_11  and  C_12 
REMARK    8  A    between atoms: C_12  and  C_14 
REMARK    9  A    between atoms: C_14  and  N_15 
REMARK       I    between atoms: N_15  and  C_16 
REMARK   10  A    between atoms: C_16  and  C_17 
REMARK   11  A    between atoms: C_17  and  O_20 
REMARK   12  A    between atoms: C_17  and  C_19 
REMARK   13  A    between atoms: C_19  and  C_21 
REMARK   14  A    between atoms: C_21  and  O_24 
REMARK   15  A    between atoms: O_24  and  P_25 
REMARK   16  A    between atoms: P_25  and  O_28 
REMARK   17  A    between atoms: P_25  and  O_26 
REMARK   18  A    between atoms: O_26  and  P_29 
REMARK   19  A    between atoms: P_29  and  O_32 
REMARK   20  A    between atoms: P_29  and  O_30 
REMARK   21  A    between atoms: O_30  and  C_33 
REMARK   22  A    between atoms: C_34  and  C_33 
REMARK   23  A    between atoms: C_36  and  O_38 
REMARK   24  A    between atoms: C_37  and  N_40 
REMARK   25  A    between atoms: O_38  and  P_41 
REMARK   26  A    between atoms: C_39  and  O_42 
REMARK   27  A    between atoms: P_41  and  O_46 
REMARK   28  A    between atoms: P_41  and  O_47 
REMARK   29  A    between atoms: C_52  and  N_54 
ROOT
ATOM      1  O   UNL d   1     -23.722 -12.136 -13.432  0.00  0.00    -0.195 OA
ENDROOT
BRANCH   1   2
ATOM      2  P   UNL d   1     -23.435 -10.371 -13.276  0.00  0.00     0.401 P 
ATOM      3  O   UNL d   1     -23.821  -9.404 -14.371  0.00  0.00    -0.631 OA
BRANCH   2   4
ATOM      4  O   UNL d   1     -22.101  -9.802 -12.536  0.00  0.00    -0.296 OA
BRANCH   4   5
ATOM      5  C   UNL d   1     -21.715  -8.416 -12.821  0.00  0.00     0.192 C 
BRANCH   5   6
ATOM      6  C   UNL d   1     -20.224  -7.989 -13.257  0.00  0.00     0.009 C 
ATOM      7  C   UNL d   1     -19.210  -8.262 -12.139  0.00  0.00     0.020 C 
ATOM      8  C   UNL d   1     -20.096  -6.481 -13.630  0.00  0.00     0.020 C 
BRANCH   6   9
ATOM      9  C   UNL d   1     -19.787  -8.780 -14.561  0.00  0.00     0.219 C 
BRANCH   9  10
ATOM     10  C   UNL d   1     -19.112 -10.140 -14.291  0.00  0.00     0.247 C 
ATOM     11  N   UNL d   1     -17.734 -10.166 -14.341  0.00  0.00    -0.358 N 
ATOM     12  H   UNL d   1     -17.226  -9.298 -14.462  0.00  0.00     0.162 HD
ATOM     13  O   UNL d   1     -19.789 -11.142 -14.054  0.00  0.00    -0.271 OA
BRANCH  11  14
ATOM     14  C   UNL d   1     -17.014 -11.356 -13.915  0.00  0.00     0.132 C 
BRANCH  14  15
ATOM     15  C   UNL d   1     -16.122 -11.121 -12.709  0.00  0.00     0.122 C 
BRANCH  15  16
ATOM     16  C   UNL d   1     -16.847 -11.601 -11.469  0.00  0.00     0.219 C 
ATOM     17  N   UNL d   1     -18.087 -12.149 -11.708  0.00  0.00    -0.360 N 
ATOM     18  H   UNL d   1     -18.309 -12.463 -12.646  0.00  0.00     0.162 HD
ATOM     19  O   UNL d   1     -16.381 -11.441 -10.343  0.00  0.00    -0.274 OA
BRANCH  17  20
ATOM     20  C   UNL d   1     -18.911 -12.649 -10.617  0.00  0.00     0.133 C 
BRANCH  20  21
ATOM     21  C   UNL d   1     -18.787 -14.161 -10.386  0.00  0.00     0.102 C 
BRANCH  21  22
ATOM     22  S   UNL d   1     -20.372 -14.874  -9.830  0.00  0.00    -0.091 SA
BRANCH  22  23
ATOM     23  C   UNL d   1     -20.104 -14.908  -8.081  0.00  0.00     0.186 C 
ATOM     24  O   UNL d   1     -19.865 -13.884  -7.450  0.00  0.00    -0.286 OA
BRANCH  23  25
ATOM     25  C   UNL d   1     -20.157 -16.301  -7.478  0.00  0.00     0.094 C 
BRANCH  25  26
ATOM     26  C   UNL d   1     -21.587 -16.789  -7.195  0.00  0.00    -0.015 C 
ATOM     27  C   UNL d   1     -21.596 -18.242  -6.715  0.00  0.00     0.010 C 
ATOM     28  C   UNL d   1     -22.257 -15.905  -6.137  0.00  0.00     0.010 C 
ENDBRANCH  25  26
ENDBRANCH  23  25
ENDBRANCH  22  23
ENDBRANCH  21  22
ENDBRANCH  20  21
ENDBRANCH  17  20
ENDBRANCH  15  16
ENDBRANCH  14  15
ENDBRANCH  11  14
ENDBRANCH   9  10
BRANCH   9  29
ATOM     29  O   UNL d   1     -20.913  -9.000 -15.420  0.00  0.00    -0.385 OA
ATOM     30  H   UNL d   1     -21.092  -8.156 -15.880  0.00  0.00     0.210 HD
ENDBRANCH   9  29
ENDBRANCH   6   9
ENDBRANCH   5   6
ENDBRANCH   4   5
ENDBRANCH   2   4
BRANCH   2  31
ATOM     31  O   UNL d   1     -24.551 -10.071 -12.147  0.00  0.00    -0.307 OA
ATOM     32  H   UNL d   1     -24.702  -9.097 -12.204  0.00  0.00     0.222 HD
ENDBRANCH   2  31
ENDBRANCH   1   2
BRANCH   1  33
ATOM     33  P   UNL d   1     -24.322 -12.521 -11.855  0.00  0.00     0.401 P 
ATOM     34  O   UNL d   1     -23.449 -13.769 -11.826  0.00  0.00    -0.631 OA
BRANCH  33  35
ATOM     35  O   UNL d   1     -25.796 -12.709 -12.490  0.00  0.00    -0.307 OA
ATOM     36  H   UNL d   1     -25.871 -12.481 -13.427  0.00  0.00     0.222 HD
ENDBRANCH  33  35
BRANCH  33  37
ATOM     37  O   UNL d   1     -24.921 -12.905 -10.279  0.00  0.00    -0.294 OA
BRANCH  37  38
ATOM     38  C   UNL d   1     -24.046 -13.769  -9.451  0.00  0.00     0.215 C 
BRANCH  38  39
ATOM     39  C   UNL d   1     -23.472 -13.135  -8.144  0.00  0.00     0.180 C 
ATOM     40  O   UNL d   1     -22.498 -12.131  -8.529  0.00  0.00    -0.353 OA
ATOM     41  C   UNL d   1     -22.592 -11.000  -7.641  0.00  0.00     0.262 C 
ATOM     42  C   UNL d   1     -23.312 -11.551  -6.409  0.00  0.00     0.199 C 
ATOM     43  C   UNL d   1     -24.361 -12.476  -7.051  0.00  0.00     0.197 C 
BRANCH  41  44
ATOM     44  N   UNL d   1     -23.247  -9.918  -8.348  0.00  0.00    -0.294 N 
ATOM     45  C   UNL d   1     -24.562  -9.919  -8.759  0.00  0.00     0.214 A 
ATOM     46  N   UNL d   1     -24.868  -8.825  -9.426  0.00  0.00    -0.236 NA
ATOM     47  C   UNL d   1     -23.698  -8.090  -9.449  0.00  0.00     0.144 A 
ATOM     48  C   UNL d   1     -22.697  -8.758  -8.774  0.00  0.00     0.166 A 
ATOM     49  C   UNL d   1     -23.383  -6.839 -10.007  0.00  0.00     0.135 A 
ATOM     50  N   UNL d   1     -21.435  -8.302  -8.587  0.00  0.00    -0.222 NA
ATOM     51  C   UNL d   1     -21.247  -7.102  -9.148  0.00  0.00     0.237 A 
ATOM     52  N   UNL d   1     -22.138  -6.350  -9.829  0.00  0.00    -0.228 NA
BRANCH  49  53
ATOM     53  N   UNL d   1     -24.290  -6.067 -10.718  0.00  0.00    -0.285 NA
ATOM     54  H   UNL d   1     -24.144  -6.113 -11.717  0.00  0.00     0.125 HD
ATOM     55  H   UNL d   1     -24.449  -5.155 -10.302  0.00  0.00     0.125 HD
ENDBRANCH  49  53
ENDBRANCH  41  44
BRANCH  42  56
ATOM     56  O   UNL d   1     -22.430 -12.329  -5.564  0.00  0.00    -0.388 OA
ATOM     57  H   UNL d   1     -22.388 -11.898  -4.686  0.00  0.00     0.210 HD
ENDBRANCH  42  56
BRANCH  43  58
ATOM     58  O   UNL d   1     -24.850 -13.398  -6.073  0.00  0.00    -0.286 OA
BRANCH  58  59
ATOM     59  P   UNL d   1     -26.432 -14.070  -6.269  0.00  0.00     0.391 P 
ATOM     60  O   UNL d   1     -27.849 -14.672  -6.445  0.00  0.00    -0.632 OA
BRANCH  59  61
ATOM     61  O   UNL d   1     -25.974 -14.978  -4.990  0.00  0.00    -0.307 OA
ATOM     62  H   UNL d   1     -26.391 -14.584  -4.205  0.00  0.00     0.222 HD
ENDBRANCH  59  61
BRANCH  59  63
ATOM     63  O   UNL d   1     -26.908 -12.770  -5.383  0.00  0.00    -0.307 OA
ATOM     64  H   UNL d   1     -26.477 -12.786  -4.505  0.00  0.00     0.222 HD
ENDBRANCH  59  63
ENDBRANCH  58  59
ENDBRANCH  43  58
ENDBRANCH  38  39
ENDBRANCH  37  38
ENDBRANCH  33  37
ENDBRANCH   1  33
TORSDOF 29
ENDMDL
MODEL 5
REMARK VINA RESULT:      -7.3      2.650      6.796
REMARK  29 active torsions:
REMARK  status: ('A' for Active; 'I' for Inactive)
REMARK    1  A    between atoms: C_2  and  C_3 
REMARK    2  A    between atoms: C_3  and  C_5 
REMARK    3  A    between atoms: C_5  and  S_6 
REMARK    4  A    between atoms: S_6  and  C_8 
REMARK    5  A    between atoms: C_8  and  C_9 
REMARK    6  A    between atoms: C_9  and  N_10 
REMARK       I    between atoms: N_10  and  C_11 
REMARK    7  A    between atoms: C_11  and  C_12 
REMARK    8  A    between atoms: C_12  and  C_14 
REMARK    9  A    between atoms: C_14  and  N_15 
REMARK       I    between atoms: N_15  and  C_16 
REMARK   10  A    between atoms: C_16  and  C_17 
REMARK   11  A    between atoms: C_17  and  O_20 
REMARK   12  A    between atoms: C_17  and  C_19 
REMARK   13  A    between atoms: C_19  and  C_21 
REMARK   14  A    between atoms: C_21  and  O_24 
REMARK   15  A    between atoms: O_24  and  P_25 
REMARK   16  A    between atoms: P_25  and  O_28 
REMARK   17  A    between atoms: P_25  and  O_26 
REMARK   18  A    between atoms: O_26  and  P_29 
REMARK   19  A    between atoms: P_29  and  O_32 
REMARK   20  A    between atoms: P_29  and  O_30 
REMARK   21  A    between atoms: O_30  and  C_33 
REMARK   22  A    between atoms: C_34  and  C_33 
REMARK   23  A    between atoms: C_36  and  O_38 
REMARK   24  A    between atoms: C_37  and  N_40 
REMARK   25  A    between atoms: O_38  and  P_41 
REMARK   26  A    between atoms: C_39  and  O_42 
REMARK   27  A    between atoms: P_41  and  O_46 
REMARK   28  A    between atoms: P_41  and  O_47 
REMARK   29  A    between atoms: C_52  and  N_54 
ROOT
ATOM      1  O   UNL d   1     -25.199 -11.439  -7.140  0.00  0.00    -0.195 OA
ENDROOT
BRANCH   1   2
ATOM      2  P   UNL d   1     -24.636 -13.134  -6.961  0.00  0.00     0.401 P 
ATOM      3  O   UNL d   1     -25.472 -14.302  -7.426  0.00  0.00    -0.631 OA
BRANCH   2   4
ATOM      4  O   UNL d   1     -23.787 -13.599  -5.652  0.00  0.00    -0.296 OA
BRANCH   4   5
ATOM      5  C   UNL d   1     -22.611 -14.446  -5.880  0.00  0.00     0.192 C 
BRANCH   5   6
ATOM      6  C   UNL d   1     -21.145 -14.084  -5.322  0.00  0.00     0.009 C 
ATOM      7  C   UNL d   1     -20.479 -15.295  -4.658  0.00  0.00     0.020 C 
ATOM      8  C   UNL d   1     -21.149 -12.933  -4.271  0.00  0.00     0.020 C 
BRANCH   6   9
ATOM      9  C   UNL d   1     -20.222 -13.565  -6.504  0.00  0.00     0.219 C 
BRANCH   9  10
ATOM     10  C   UNL d   1     -20.257 -14.437  -7.776  0.00  0.00     0.247 C 
ATOM     11  N   UNL d   1     -20.852 -13.880  -8.889  0.00  0.00    -0.358 N 
ATOM     12  H   UNL d   1     -21.154 -12.914  -8.858  0.00  0.00     0.162 HD
ATOM     13  O   UNL d   1     -19.783 -15.574  -7.772  0.00  0.00    -0.271 OA
BRANCH  11  14
ATOM     14  C   UNL d   1     -20.761 -14.554 -10.175  0.00  0.00     0.132 C 
BRANCH  14  15
ATOM     15  C   UNL d   1     -21.035 -13.639 -11.356  0.00  0.00     0.122 C 
BRANCH  15  16
ATOM     16  C   UNL d   1     -22.531 -13.585 -11.590  0.00  0.00     0.219 C 
ATOM     17  N   UNL d   1     -22.912 -12.830 -12.676  0.00  0.00    -0.360 N 
ATOM     18  H   UNL d   1     -22.224 -12.617 -13.389  0.00  0.00     0.162 HD
ATOM     19  O   UNL d   1     -23.326 -14.120 -10.822  0.00  0.00    -0.274 OA
BRANCH  17  20
ATOM     20  C   UNL d   1     -24.317 -12.675 -13.027  0.00  0.00     0.133 C 
BRANCH  20  21
ATOM     21  C   UNL d   1     -24.851 -13.775 -13.954  0.00  0.00     0.102 C 
BRANCH  21  22
ATOM     22  S   UNL d   1     -26.447 -13.292 -14.696  0.00  0.00    -0.091 SA
BRANCH  22  23
ATOM     23  C   UNL d   1     -27.566 -14.052 -13.554  0.00  0.00     0.186 C 
ATOM     24  O   UNL d   1     -27.456 -13.889 -12.344  0.00  0.00    -0.286 OA
BRANCH  23  25
ATOM     25  C   UNL d   1     -28.612 -14.933 -14.215  0.00  0.00     0.094 C 
BRANCH  25  26
ATOM     26  C   UNL d   1     -28.414 -16.432 -13.932  0.00  0.00    -0.015 C 
ATOM     27  C   UNL d   1     -26.960 -16.744 -13.568  0.00  0.00     0.010 C 
ATOM     28  C   UNL d   1     -29.327 -16.888 -12.788  0.00  0.00     0.010 C 
ENDBRANCH  25  26
ENDBRANCH  23  25
ENDBRANCH  22  23
ENDBRANCH  21  22
ENDBRANCH  20  21
ENDBRANCH  17  20
ENDBRANCH  15  16
ENDBRANCH  14  15
ENDBRANCH  11  14
ENDBRANCH   9  10
BRANCH   9  29
ATOM     29  O   UNL d   1     -20.573 -12.224  -6.869  0.00  0.00    -0.385 OA
ATOM     30  H   UNL d   1     -20.219 -12.070  -7.767  0.00  0.00     0.210 HD
ENDBRANCH   9  29
ENDBRANCH   6   9
ENDBRANCH   5   6
ENDBRANCH   4   5
ENDBRANCH   2   4
BRANCH   2  31
ATOM     31  O   UNL d   1     -23.464 -13.088  -8.073  0.00  0.00    -0.307 OA
ATOM     32  H   UNL d   1     -23.437 -12.144  -8.361  0.00  0.00     0.222 HD
ENDBRANCH   2  31
ENDBRANCH   1   2
BRANCH   1  33
ATOM     33  P   UNL d   1     -24.654 -11.069  -8.740  0.00  0.00     0.401 P 
ATOM     34  O   UNL d   1     -24.952  -9.594  -8.502  0.00  0.00    -0.631 OA
BRANCH  33  35
ATOM     35  O   UNL d   1     -25.875 -11.946  -9.332  0.00  0.00    -0.307 OA
ATOM     36  H   UNL d   1     -25.613 -12.682  -9.903  0.00  0.00     0.222 HD
ENDBRANCH  33  35
BRANCH  33  37
ATOM     37  O   UNL d   1     -24.108 -10.698 -10.338  0.00  0.00    -0.294 OA
BRANCH  37  38
ATOM     38  C   UNL d   1     -23.318  -9.452 -10.476  0.00  0.00     0.215 C 
BRANCH  38  39
ATOM     39  C   UNL d   1     -21.768  -9.586 -10.337  0.00  0.00     0.180 C 
ATOM     40  O   UNL d   1     -21.287 -10.354 -11.470  0.00  0.00    -0.353 OA
ATOM     41  C   UNL d   1     -20.025  -9.822 -11.915  0.00  0.00     0.262 C 
ATOM     42  C   UNL d   1     -19.515  -9.018 -10.717  0.00  0.00     0.199 C 
ATOM     43  C   UNL d   1     -20.812  -8.367 -10.206  0.00  0.00     0.197 C 
BRANCH  41  44
ATOM     44  N   UNL d   1     -20.247  -9.087 -13.144  0.00  0.00    -0.294 N 
ATOM     45  C   UNL d   1     -19.810  -7.804 -13.392  0.00  0.00     0.214 A 
ATOM     46  N   UNL d   1     -20.204  -7.371 -14.571  0.00  0.00    -0.236 NA
ATOM     47  C   UNL d   1     -20.929  -8.420 -15.105  0.00  0.00     0.144 A 
ATOM     48  C   UNL d   1     -20.948  -9.486 -14.230  0.00  0.00     0.166 A 
ATOM     49  C   UNL d   1     -21.602  -8.573 -16.329  0.00  0.00     0.135 A 
ATOM     50  N   UNL d   1     -21.546 -10.679 -14.456  0.00  0.00    -0.222 NA
ATOM     51  C   UNL d   1     -22.146 -10.720 -15.652  0.00  0.00     0.237 A 
ATOM     52  N   UNL d   1     -22.200  -9.753 -16.592  0.00  0.00    -0.228 NA
BRANCH  49  53
ATOM     53  N   UNL d   1     -21.670  -7.579 -17.295  0.00  0.00    -0.285 NA
ATOM     54  H   UNL d   1     -21.489  -7.926 -18.226  0.00  0.00     0.125 HD
ATOM     55  H   UNL d   1     -21.215  -6.717 -17.013  0.00  0.00     0.125 HD
ENDBRANCH  49  53
ENDBRANCH  41  44
BRANCH  42  56
ATOM     56  O   UNL d   1     -18.960  -9.870  -9.685  0.00  0.00    -0.388 OA
ATOM     57  H   UNL d   1     -19.152 -10.801  -9.919  0.00  0.00     0.210 HD
ENDBRANCH  42  56
BRANCH  43  58
ATOM     58  O   UNL d   1     -20.627  -7.922  -8.859  0.00  0.00    -0.286 OA
BRANCH  58  59
ATOM     59  P   UNL d   1     -21.417  -8.775  -7.577  0.00  0.00     0.391 P 
ATOM     60  O   UNL d   1     -22.123  -9.539  -6.430  0.00  0.00    -0.632 OA
BRANCH  59  61
ATOM     61  O   UNL d   1     -19.888  -9.237  -7.230  0.00  0.00    -0.307 OA
ATOM     62  H   UNL d   1     -19.841 -10.194  -7.397  0.00  0.00     0.222 HD
ENDBRANCH  59  61
BRANCH  59  63
ATOM     63  O   UNL d   1     -21.330  -7.332  -6.794  0.00  0.00    -0.307 OA
ATOM     64  H   UNL d   1     -20.618  -6.783  -7.178  0.00  0.00     0.222 HD
ENDBRANCH  59  63
ENDBRANCH  58  59
ENDBRANCH  43  58
ENDBRANCH  38  39
ENDBRANCH  37  38
ENDBRANCH  33  37
ENDBRANCH   1  33
TORSDOF 29
ENDMDL
MODEL 6
REMARK VINA RESULT:      -7.2      3.081      4.780
REMARK  29 active torsions:
REMARK  status: ('A' for Active; 'I' for Inactive)
REMARK    1  A    between atoms: C_2  and  C_3 
REMARK    2  A    between atoms: C_3  and  C_5 
REMARK    3  A    between atoms: C_5  and  S_6 
REMARK    4  A    between atoms: S_6  and  C_8 
REMARK    5  A    between atoms: C_8  and  C_9 
REMARK    6  A    between atoms: C_9  and  N_10 
REMARK       I    between atoms: N_10  and  C_11 
REMARK    7  A    between atoms: C_11  and  C_12 
REMARK    8  A    between atoms: C_12  and  C_14 
REMARK    9  A    between atoms: C_14  and  N_15 
REMARK       I    between atoms: N_15  and  C_16 
REMARK   10  A    between atoms: C_16  and  C_17 
REMARK   11  A    between atoms: C_17  and  O_20 
REMARK   12  A    between atoms: C_17  and  C_19 
REMARK   13  A    between atoms: C_19  and  C_21 
REMARK   14  A    between atoms: C_21  and  O_24 
REMARK   15  A    between atoms: O_24  and  P_25 
REMARK   16  A    between atoms: P_25  and  O_28 
REMARK   17  A    between atoms: P_25  and  O_26 
REMARK   18  A    between atoms: O_26  and  P_29 
REMARK   19  A    between atoms: P_29  and  O_32 
REMARK   20  A    between atoms: P_29  and  O_30 
REMARK   21  A    between atoms: O_30  and  C_33 
REMARK   22  A    between atoms: C_34  and  C_33 
REMARK   23  A    between atoms: C_36  and  O_38 
REMARK   24  A    between atoms: C_37  and  N_40 
REMARK   25  A    between atoms: O_38  and  P_41 
REMARK   26  A    between atoms: C_39  and  O_42 
REMARK   27  A    between atoms: P_41  and  O_46 
REMARK   28  A    between atoms: P_41  and  O_47 
REMARK   29  A    between atoms: C_52  and  N_54 
ROOT
ATOM      1  O   UNL d   1     -21.440  -8.802  -6.053  0.00  0.00    -0.195 OA
ENDROOT
BRANCH   1   2
ATOM      2  P   UNL d   1     -21.268  -8.660  -7.834  0.00  0.00     0.401 P 
ATOM      3  O   UNL d   1     -20.623  -9.749  -8.658  0.00  0.00    -0.631 OA
BRANCH   2   4
ATOM      4  O   UNL d   1     -20.939  -7.226  -8.530  0.00  0.00    -0.296 OA
BRANCH   4   5
ATOM      5  C   UNL d   1     -21.773  -6.826  -9.668  0.00  0.00     0.192 C 
BRANCH   5   6
ATOM      6  C   UNL d   1     -21.416  -7.195 -11.195  0.00  0.00     0.009 C 
ATOM      7  C   UNL d   1     -19.969  -7.684 -11.334  0.00  0.00     0.020 C 
ATOM      8  C   UNL d   1     -21.588  -5.997 -12.177  0.00  0.00     0.020 C 
BRANCH   6   9
ATOM      9  C   UNL d   1     -22.400  -8.318 -11.731  0.00  0.00     0.219 C 
BRANCH   9  10
ATOM     10  C   UNL d   1     -22.412  -8.481 -13.265  0.00  0.00     0.247 C 
ATOM     11  N   UNL d   1     -21.470  -9.334 -13.802  0.00  0.00    -0.358 N 
ATOM     12  H   UNL d   1     -20.880  -9.875 -13.182  0.00  0.00     0.162 HD
ATOM     13  O   UNL d   1     -23.223  -7.863 -13.956  0.00  0.00    -0.271 OA
BRANCH  11  14
ATOM     14  C   UNL d   1     -21.532  -9.689 -15.212  0.00  0.00     0.132 C 
BRANCH  14  15
ATOM     15  C   UNL d   1     -21.677 -11.182 -15.451  0.00  0.00     0.122 C 
BRANCH  15  16
ATOM     16  C   UNL d   1     -23.152 -11.520 -15.524  0.00  0.00     0.219 C 
ATOM     17  N   UNL d   1     -23.550 -12.088 -16.713  0.00  0.00    -0.360 N 
ATOM     18  H   UNL d   1     -22.847 -12.503 -17.315  0.00  0.00     0.162 HD
ATOM     19  O   UNL d   1     -23.927 -11.239 -14.613  0.00  0.00    -0.274 OA
BRANCH  17  20
ATOM     20  C   UNL d   1     -24.939 -12.462 -16.940  0.00  0.00     0.133 C 
BRANCH  20  21
ATOM     21  C   UNL d   1     -25.263 -13.912 -16.556  0.00  0.00     0.102 C 
BRANCH  21  22
ATOM     22  S   UNL d   1     -27.046 -14.124 -16.234  0.00  0.00    -0.091 SA
BRANCH  22  23
ATOM     23  C   UNL d   1     -27.374 -15.560 -17.216  0.00  0.00     0.186 C 
ATOM     24  O   UNL d   1     -26.929 -15.673 -18.352  0.00  0.00    -0.286 OA
BRANCH  23  25
ATOM     25  C   UNL d   1     -28.271 -16.577 -16.534  0.00  0.00     0.094 C 
BRANCH  25  26
ATOM     26  C   UNL d   1     -29.336 -15.940 -15.626  0.00  0.00    -0.015 C 
ATOM     27  C   UNL d   1     -30.740 -16.101 -16.215  0.00  0.00     0.010 C 
ATOM     28  C   UNL d   1     -29.301 -16.572 -14.231  0.00  0.00     0.010 C 
ENDBRANCH  25  26
ENDBRANCH  23  25
ENDBRANCH  22  23
ENDBRANCH  21  22
ENDBRANCH  20  21
ENDBRANCH  17  20
ENDBRANCH  15  16
ENDBRANCH  14  15
ENDBRANCH  11  14
ENDBRANCH   9  10
BRANCH   9  29
ATOM     29  O   UNL d   1     -22.083  -9.589 -11.148  0.00  0.00    -0.385 OA
ATOM     30  H   UNL d   1     -22.127 -10.252 -11.865  0.00  0.00     0.210 HD
ENDBRANCH   9  29
ENDBRANCH   6   9
ENDBRANCH   5   6
ENDBRANCH   4   5
ENDBRANCH   2   4
BRANCH   2  31
ATOM     31  O   UNL d   1     -22.830  -8.823  -8.213  0.00  0.00    -0.307 OA
ATOM     32  H   UNL d   1     -23.272  -9.014  -7.351  0.00  0.00     0.222 HD
ENDBRANCH   2  31
ENDBRANCH   1   2
BRANCH   1  33
ATOM     33  P   UNL d   1     -21.016 -10.461  -5.803  0.00  0.00     0.401 P 
ATOM     34  O   UNL d   1     -22.402 -10.732  -5.234  0.00  0.00    -0.631 OA
BRANCH  33  35
ATOM     35  O   UNL d   1     -19.898  -9.988  -4.736  0.00  0.00    -0.307 OA
ATOM     36  H   UNL d   1     -19.041 -10.430  -4.816  0.00  0.00     0.222 HD
ENDBRANCH  33  35
BRANCH  33  37
ATOM     37  O   UNL d   1     -20.592 -12.119  -5.554  0.00  0.00    -0.294 OA
BRANCH  37  38
ATOM     38  C   UNL d   1     -21.481 -12.881  -4.645  0.00  0.00     0.215 C 
BRANCH  38  39
ATOM     39  C   UNL d   1     -22.138 -14.172  -5.229  0.00  0.00     0.180 C 
ATOM     40  O   UNL d   1     -23.525 -13.868  -5.525  0.00  0.00    -0.353 OA
ATOM     41  C   UNL d   1     -23.916 -14.531  -6.743  0.00  0.00     0.262 C 
ATOM     42  C   UNL d   1     -22.876 -15.639  -6.916  0.00  0.00     0.199 C 
ATOM     43  C   UNL d   1     -21.587 -14.925  -6.472  0.00  0.00     0.197 C 
BRANCH  41  44
ATOM     44  N   UNL d   1     -23.993 -13.539  -7.798  0.00  0.00    -0.294 N 
ATOM     45  C   UNL d   1     -24.041 -12.176  -7.604  0.00  0.00     0.214 A 
ATOM     46  N   UNL d   1     -24.164 -11.524  -8.741  0.00  0.00    -0.236 NA
ATOM     47  C   UNL d   1     -24.201 -12.510  -9.709  0.00  0.00     0.144 A 
ATOM     48  C   UNL d   1     -24.085 -13.757  -9.130  0.00  0.00     0.166 A 
ATOM     49  C   UNL d   1     -24.320 -12.452 -11.108  0.00  0.00     0.135 A 
ATOM     50  N   UNL d   1     -24.057 -14.935  -9.797  0.00  0.00    -0.222 NA
ATOM     51  C   UNL d   1     -24.167 -14.764 -11.120  0.00  0.00     0.237 A 
ATOM     52  N   UNL d   1     -24.285 -13.606 -11.805  0.00  0.00    -0.228 NA
BRANCH  49  53
ATOM     53  N   UNL d   1     -24.453 -11.267 -11.817  0.00  0.00    -0.285 NA
ATOM     54  H   UNL d   1     -25.065 -11.356 -12.616  0.00  0.00     0.125 HD
ATOM     55  H   UNL d   1     -23.573 -10.778 -11.945  0.00  0.00     0.125 HD
ENDBRANCH  49  53
ENDBRANCH  41  44
BRANCH  42  56
ATOM     56  O   UNL d   1     -23.131 -16.768  -6.046  0.00  0.00    -0.388 OA
ATOM     57  H   UNL d   1     -22.614 -17.532  -6.375  0.00  0.00     0.210 HD
ENDBRANCH  42  56
BRANCH  43  58
ATOM     58  O   UNL d   1     -20.584 -15.897  -6.160  0.00  0.00    -0.286 OA
BRANCH  58  59
ATOM     59  P   UNL d   1     -18.967 -15.645  -6.722  0.00  0.00     0.391 P 
ATOM     60  O   UNL d   1     -17.519 -15.418  -7.225  0.00  0.00    -0.632 OA
BRANCH  59  61
ATOM     61  O   UNL d   1     -19.665 -14.400  -7.518  0.00  0.00    -0.307 OA
ATOM     62  H   UNL d   1     -19.190 -14.306  -8.361  0.00  0.00     0.222 HD
ENDBRANCH  59  61
BRANCH  59  63
ATOM     63  O   UNL d   1     -18.781 -14.842  -5.299  0.00  0.00    -0.307 OA
ATOM     64  H   UNL d   1     -17.977 -14.286  -5.329  0.00  0.00     0.222 HD
ENDBRANCH  59  63
ENDBRANCH  58  59
ENDBRANCH  43  58
ENDBRANCH  38  39
ENDBRANCH  37  38
ENDBRANCH  33  37
ENDBRANCH   1  33
TORSDOF 29
ENDMDL
MODEL 7
REMARK VINA RESULT:      -7.2      3.046      7.900
REMARK  29 active torsions:
REMARK  status: ('A' for Active; 'I' for Inactive)
REMARK    1  A    between atoms: C_2  and  C_3 
REMARK    2  A    between atoms: C_3  and  C_5 
REMARK    3  A    between atoms: C_5  and  S_6 
REMARK    4  A    between atoms: S_6  and  C_8 
REMARK    5  A    between atoms: C_8  and  C_9 
REMARK    6  A    between atoms: C_9  and  N_10 
REMARK       I    between atoms: N_10  and  C_11 
REMARK    7  A    between atoms: C_11  and  C_12 
REMARK    8  A    between atoms: C_12  and  C_14 
REMARK    9  A    between atoms: C_14  and  N_15 
REMARK       I    between atoms: N_15  and  C_16 
REMARK   10  A    between atoms: C_16  and  C_17 
REMARK   11  A    between atoms: C_17  and  O_20 
REMARK   12  A    between atoms: C_17  and  C_19 
REMARK   13  A    between atoms: C_19  and  C_21 
REMARK   14  A    between atoms: C_21  and  O_24 
REMARK   15  A    between atoms: O_24  and  P_25 
REMARK   16  A    between atoms: P_25  and  O_28 
REMARK   17  A    between atoms: P_25  and  O_26 
REMARK   18  A    between atoms: O_26  and  P_29 
REMARK   19  A    between atoms: P_29  and  O_32 
REMARK   20  A    between atoms: P_29  and  O_30 
REMARK   21  A    between atoms: O_30  and  C_33 
REMARK   22  A    between atoms: C_34  and  C_33 
REMARK   23  A    between atoms: C_36  and  O_38 
REMARK   24  A    between atoms: C_37  and  N_40 
REMARK   25  A    between atoms: O_38  and  P_41 
REMARK   26  A    between atoms: C_39  and  O_42 
REMARK   27  A    between atoms: P_41  and  O_46 
REMARK   28  A    between atoms: P_41  and  O_47 
REMARK   29  A    between atoms: C_52  and  N_54 
ROOT
ATOM      1  O   UNL d   1     -25.273 -14.236 -11.655  0.00  0.00    -0.195 OA
ENDROOT
BRANCH   1   2
ATOM      2  P   UNL d   1     -25.884 -13.432 -13.139  0.00  0.00     0.401 P 
ATOM      3  O   UNL d   1     -25.680 -11.956 -13.383  0.00  0.00    -0.631 OA
BRANCH   2   4
ATOM      4  O   UNL d   1     -27.302 -13.871 -13.805  0.00  0.00    -0.296 OA
BRANCH   4   5
ATOM      5  C   UNL d   1     -28.074 -14.912 -13.117  0.00  0.00     0.192 C 
BRANCH   5   6
ATOM      6  C   UNL d   1     -28.624 -16.233 -13.855  0.00  0.00     0.009 C 
ATOM      7  C   UNL d   1     -29.663 -15.888 -14.929  0.00  0.00     0.020 C 
ATOM      8  C   UNL d   1     -29.296 -17.250 -12.884  0.00  0.00     0.020 C 
BRANCH   6   9
ATOM      9  C   UNL d   1     -27.425 -17.026 -14.526  0.00  0.00     0.219 C 
BRANCH   9  10
ATOM     10  C   UNL d   1     -27.126 -16.623 -15.984  0.00  0.00     0.247 C 
ATOM     11  N   UNL d   1     -26.489 -15.414 -16.172  0.00  0.00    -0.358 N 
ATOM     12  H   UNL d   1     -26.170 -14.892 -15.365  0.00  0.00     0.162 HD
ATOM     13  O   UNL d   1     -27.457 -17.354 -16.919  0.00  0.00    -0.271 OA
BRANCH  11  14
ATOM     14  C   UNL d   1     -26.003 -15.047 -17.494  0.00  0.00     0.132 C 
BRANCH  14  15
ATOM     15  C   UNL d   1     -26.104 -13.558 -17.779  0.00  0.00     0.122 C 
BRANCH  15  16
ATOM     16  C   UNL d   1     -24.824 -12.889 -17.323  0.00  0.00     0.219 C 
ATOM     17  N   UNL d   1     -25.009 -11.800 -16.502  0.00  0.00    -0.360 N 
ATOM     18  H   UNL d   1     -25.899 -11.690 -16.030  0.00  0.00     0.162 HD
ATOM     19  O   UNL d   1     -23.723 -13.260 -17.721  0.00  0.00    -0.274 OA
BRANCH  17  20
ATOM     20  C   UNL d   1     -23.875 -11.046 -15.987  0.00  0.00     0.133 C 
BRANCH  20  21
ATOM     21  C   UNL d   1     -24.259  -9.709 -15.340  0.00  0.00     0.102 C 
BRANCH  21  22
ATOM     22  S   UNL d   1     -22.856  -8.542 -15.356  0.00  0.00    -0.091 SA
BRANCH  22  23
ATOM     23  C   UNL d   1     -22.303  -8.693 -13.682  0.00  0.00     0.186 C 
ATOM     24  O   UNL d   1     -23.082  -8.612 -12.740  0.00  0.00    -0.286 OA
BRANCH  23  25
ATOM     25  C   UNL d   1     -20.802  -8.883 -13.547  0.00  0.00     0.094 C 
BRANCH  25  26
ATOM     26  C   UNL d   1     -20.107  -7.732 -12.801  0.00  0.00    -0.015 C 
ATOM     27  C   UNL d   1     -18.584  -7.860 -12.873  0.00  0.00     0.010 C 
ATOM     28  C   UNL d   1     -20.526  -6.380 -13.389  0.00  0.00     0.010 C 
ENDBRANCH  25  26
ENDBRANCH  23  25
ENDBRANCH  22  23
ENDBRANCH  21  22
ENDBRANCH  20  21
ENDBRANCH  17  20
ENDBRANCH  15  16
ENDBRANCH  14  15
ENDBRANCH  11  14
ENDBRANCH   9  10
BRANCH   9  29
ATOM     29  O   UNL d   1     -26.223 -16.868 -13.761  0.00  0.00    -0.385 OA
ATOM     30  H   UNL d   1     -25.708 -16.152 -14.182  0.00  0.00     0.210 HD
ENDBRANCH   9  29
ENDBRANCH   6   9
ENDBRANCH   5   6
ENDBRANCH   4   5
ENDBRANCH   2   4
BRANCH   2  31
ATOM     31  O   UNL d   1     -24.847 -14.098 -14.184  0.00  0.00    -0.307 OA
ATOM     32  H   UNL d   1     -24.127 -14.465 -13.616  0.00  0.00     0.222 HD
ENDBRANCH   2  31
ENDBRANCH   1   2
BRANCH   1  33
ATOM     33  P   UNL d   1     -24.925 -12.872 -10.650  0.00  0.00     0.401 P 
ATOM     34  O   UNL d   1     -24.460 -13.805  -9.539  0.00  0.00    -0.631 OA
BRANCH  33  35
ATOM     35  O   UNL d   1     -26.499 -12.505 -10.646  0.00  0.00    -0.307 OA
ATOM     36  H   UNL d   1     -26.748 -11.771 -10.067  0.00  0.00     0.222 HD
ENDBRANCH  33  35
BRANCH  33  37
ATOM     37  O   UNL d   1     -24.576 -11.507  -9.645  0.00  0.00    -0.294 OA
BRANCH  37  38
ATOM     38  C   UNL d   1     -23.293 -10.818  -9.919  0.00  0.00     0.215 C 
BRANCH  38  39
ATOM     39  C   UNL d   1     -22.433 -10.421  -8.677  0.00  0.00     0.180 C 
ATOM     40  O   UNL d   1     -23.248 -10.616  -7.493  0.00  0.00    -0.353 OA
ATOM     41  C   UNL d   1     -22.433 -11.133  -6.424  0.00  0.00     0.262 C 
ATOM     42  C   UNL d   1     -21.003 -10.785  -6.843  0.00  0.00     0.199 C 
ATOM     43  C   UNL d   1     -21.049 -11.054  -8.357  0.00  0.00     0.197 C 
BRANCH  41  44
ATOM     44  N   UNL d   1     -22.738 -12.540  -6.257  0.00  0.00    -0.294 N 
ATOM     45  C   UNL d   1     -21.806 -13.537  -6.066  0.00  0.00     0.214 A 
ATOM     46  N   UNL d   1     -22.367 -14.726  -6.000  0.00  0.00    -0.236 NA
ATOM     47  C   UNL d   1     -23.719 -14.485  -6.159  0.00  0.00     0.144 A 
ATOM     48  C   UNL d   1     -23.952 -13.133  -6.307  0.00  0.00     0.166 A 
ATOM     49  C   UNL d   1     -24.832 -15.343  -6.182  0.00  0.00     0.135 A 
ATOM     50  N   UNL d   1     -25.168 -12.557  -6.456  0.00  0.00    -0.222 NA
ATOM     51  C   UNL d   1     -26.155 -13.461  -6.454  0.00  0.00     0.237 A 
ATOM     52  N   UNL d   1     -26.060 -14.801  -6.318  0.00  0.00    -0.228 NA
BRANCH  49  53
ATOM     53  N   UNL d   1     -24.740 -16.721  -6.055  0.00  0.00    -0.285 NA
ATOM     54  H   UNL d   1     -24.111 -17.004  -5.315  0.00  0.00     0.125 HD
ATOM     55  H   UNL d   1     -24.670 -17.201  -6.946  0.00  0.00     0.125 HD
ENDBRANCH  49  53
ENDBRANCH  41  44
BRANCH  42  56
ATOM     56  O   UNL d   1     -20.689  -9.391  -6.606  0.00  0.00    -0.388 OA
ATOM     57  H   UNL d   1     -21.366  -8.844  -7.054  0.00  0.00     0.210 HD
ENDBRANCH  42  56
BRANCH  43  58
ATOM     58  O   UNL d   1     -19.952 -10.394  -8.995  0.00  0.00    -0.286 OA
BRANCH  58  59
ATOM     59  P   UNL d   1     -19.413 -10.963 -10.538  0.00  0.00     0.391 P 
ATOM     60  O   UNL d   1     -18.930 -11.472 -11.919  0.00  0.00    -0.632 OA
BRANCH  59  61
ATOM     61  O   UNL d   1     -17.957 -10.949  -9.796  0.00  0.00    -0.307 OA
ATOM     62  H   UNL d   1     -17.965 -11.675  -9.150  0.00  0.00     0.222 HD
ENDBRANCH  59  61
BRANCH  59  63
ATOM     63  O   UNL d   1     -19.871 -12.434  -9.964  0.00  0.00    -0.307 OA
ATOM     64  H   UNL d   1     -20.750 -12.371  -9.541  0.00  0.00     0.222 HD
ENDBRANCH  59  63
ENDBRANCH  58  59
ENDBRANCH  43  58
ENDBRANCH  38  39
ENDBRANCH  37  38
ENDBRANCH  33  37
ENDBRANCH   1  33
TORSDOF 29
ENDMDL
MODEL 8
REMARK VINA RESULT:      -7.1     22.911     26.950
REMARK  29 active torsions:
REMARK  status: ('A' for Active; 'I' for Inactive)
REMARK    1  A    between atoms: C_2  and  C_3 
REMARK    2  A    between atoms: C_3  and  C_5 
REMARK    3  A    between atoms: C_5  and  S_6 
REMARK    4  A    between atoms: S_6  and  C_8 
REMARK    5  A    between atoms: C_8  and  C_9 
REMARK    6  A    between atoms: C_9  and  N_10 
REMARK       I    between atoms: N_10  and  C_11 
REMARK    7  A    between atoms: C_11  and  C_12 
REMARK    8  A    between atoms: C_12  and  C_14 
REMARK    9  A    between atoms: C_14  and  N_15 
REMARK       I    between atoms: N_15  and  C_16 
REMARK   10  A    between atoms: C_16  and  C_17 
REMARK   11  A    between atoms: C_17  and  O_20 
REMARK   12  A    between atoms: C_17  and  C_19 
REMARK   13  A    between atoms: C_19  and  C_21 
REMARK   14  A    between atoms: C_21  and  O_24 
REMARK   15  A    between atoms: O_24  and  P_25 
REMARK   16  A    between atoms: P_25  and  O_28 
REMARK   17  A    between atoms: P_25  and  O_26 
REMARK   18  A    between atoms: O_26  and  P_29 
REMARK   19  A    between atoms: P_29  and  O_32 
REMARK   20  A    between atoms: P_29  and  O_30 
REMARK   21  A    between atoms: O_30  and  C_33 
REMARK   22  A    between atoms: C_34  and  C_33 
REMARK   23  A    between atoms: C_36  and  O_38 
REMARK   24  A    between atoms: C_37  and  N_40 
REMARK   25  A    between atoms: O_38  and  P_41 
REMARK   26  A    between atoms: C_39  and  O_42 
REMARK   27  A    between atoms: P_41  and  O_46 
REMARK   28  A    between atoms: P_41  and  O_47 
REMARK   29  A    between atoms: C_52  and  N_54 
ROOT
ATOM      1  O   UNL d   1     -36.963   9.018 -12.144  0.00  0.00    -0.195 OA
ENDROOT
BRANCH   1   2
ATOM      2  P   UNL d   1     -36.866  10.570 -11.247  0.00  0.00     0.401 P 
ATOM      3  O   UNL d   1     -37.891  10.950 -10.205  0.00  0.00    -0.631 OA
BRANCH   2   4
ATOM      4  O   UNL d   1     -36.351  11.929 -11.981  0.00  0.00    -0.296 OA
BRANCH   4   5
ATOM      5  C   UNL d   1     -36.037  13.077 -11.123  0.00  0.00     0.192 C 
BRANCH   5   6
ATOM      6  C   UNL d   1     -34.707  13.968 -11.297  0.00  0.00     0.009 C 
ATOM      7  C   UNL d   1     -34.685  15.147 -10.317  0.00  0.00     0.020 C 
ATOM      8  C   UNL d   1     -34.543  14.563 -12.729  0.00  0.00     0.020 C 
BRANCH   6   9
ATOM      9  C   UNL d   1     -33.416  13.075 -11.067  0.00  0.00     0.219 C 
BRANCH   9  10
ATOM     10  C   UNL d   1     -33.156  12.690  -9.596  0.00  0.00     0.247 C 
ATOM     11  N   UNL d   1     -32.152  13.379  -8.947  0.00  0.00    -0.358 N 
ATOM     12  H   UNL d   1     -31.696  14.151  -9.418  0.00  0.00     0.162 HD
ATOM     13  O   UNL d   1     -33.816  11.804  -9.052  0.00  0.00    -0.271 OA
BRANCH  11  14
ATOM     14  C   UNL d   1     -31.968  13.213  -7.513  0.00  0.00     0.132 C 
BRANCH  14  15
ATOM     15  C   UNL d   1     -30.510  13.084  -7.104  0.00  0.00     0.122 C 
BRANCH  15  16
ATOM     16  C   UNL d   1     -30.046  14.411  -6.540  0.00  0.00     0.219 C 
ATOM     17  N   UNL d   1     -29.662  15.333  -7.487  0.00  0.00    -0.360 N 
ATOM     18  H   UNL d   1     -29.972  15.207  -8.444  0.00  0.00     0.162 HD
ATOM     19  O   UNL d   1     -29.960  14.605  -5.330  0.00  0.00    -0.274 OA
BRANCH  17  20
ATOM     20  C   UNL d   1     -29.184  16.653  -7.101  0.00  0.00     0.133 C 
BRANCH  20  21
ATOM     21  C   UNL d   1     -29.619  17.775  -8.053  0.00  0.00     0.102 C 
BRANCH  21  22
ATOM     22  S   UNL d   1     -31.132  18.599  -7.450  0.00  0.00    -0.091 SA
BRANCH  22  23
ATOM     23  C   UNL d   1     -32.364  17.505  -8.098  0.00  0.00     0.186 C 
ATOM     24  O   UNL d   1     -32.061  16.529  -8.775  0.00  0.00    -0.286 OA
BRANCH  23  25
ATOM     25  C   UNL d   1     -33.787  17.921  -7.770  0.00  0.00     0.094 C 
BRANCH  25  26
ATOM     26  C   UNL d   1     -34.303  17.337  -6.445  0.00  0.00    -0.015 C 
ATOM     27  C   UNL d   1     -33.557  16.054  -6.072  0.00  0.00     0.010 C 
ATOM     28  C   UNL d   1     -34.146  18.357  -5.311  0.00  0.00     0.010 C 
ENDBRANCH  25  26
ENDBRANCH  23  25
ENDBRANCH  22  23
ENDBRANCH  21  22
ENDBRANCH  20  21
ENDBRANCH  17  20
ENDBRANCH  15  16
ENDBRANCH  14  15
ENDBRANCH  11  14
ENDBRANCH   9  10
BRANCH   9  29
ATOM     29  O   UNL d   1     -33.489  11.870 -11.840  0.00  0.00    -0.385 OA
ATOM     30  H   UNL d   1     -34.425  11.753 -12.098  0.00  0.00     0.210 HD
ENDBRANCH   9  29
ENDBRANCH   6   9
ENDBRANCH   5   6
ENDBRANCH   4   5
ENDBRANCH   2   4
BRANCH   2  31
ATOM     31  O   UNL d   1     -35.575  10.214 -10.343  0.00  0.00    -0.307 OA
ATOM     32  H   UNL d   1     -34.807  10.337 -10.952  0.00  0.00     0.222 HD
ENDBRANCH   2  31
ENDBRANCH   1   2
BRANCH   1  33
ATOM     33  P   UNL d   1     -36.326   9.477 -13.686  0.00  0.00     0.401 P 
ATOM     34  O   UNL d   1     -35.040   9.946 -13.017  0.00  0.00    -0.631 OA
BRANCH  33  35
ATOM     35  O   UNL d   1     -37.496  10.584 -13.811  0.00  0.00    -0.307 OA
ATOM     36  H   UNL d   1     -37.880  10.872 -12.971  0.00  0.00     0.222 HD
ENDBRANCH  33  35
BRANCH  33  37
ATOM     37  O   UNL d   1     -35.689   9.935 -15.227  0.00  0.00    -0.294 OA
BRANCH  37  38
ATOM     38  C   UNL d   1     -34.663  11.005 -15.207  0.00  0.00     0.215 C 
BRANCH  38  39
ATOM     39  C   UNL d   1     -33.350  10.730 -16.005  0.00  0.00     0.180 C 
ATOM     40  O   UNL d   1     -32.530  11.925 -15.936  0.00  0.00    -0.353 OA
ATOM     41  C   UNL d   1     -31.144  11.555 -15.810  0.00  0.00     0.262 C 
ATOM     42  C   UNL d   1     -31.098  10.105 -16.297  0.00  0.00     0.199 C 
ATOM     43  C   UNL d   1     -32.398   9.537 -15.702  0.00  0.00     0.197 C 
BRANCH  41  44
ATOM     44  N   UNL d   1     -30.729  11.795 -14.442  0.00  0.00    -0.294 N 
ATOM     45  C   UNL d   1     -30.763  10.864 -13.428  0.00  0.00     0.214 A 
ATOM     46  N   UNL d   1     -30.379  11.378 -12.278  0.00  0.00    -0.236 NA
ATOM     47  C   UNL d   1     -30.088  12.699 -12.564  0.00  0.00     0.144 A 
ATOM     48  C   UNL d   1     -30.293  12.956 -13.904  0.00  0.00     0.166 A 
ATOM     49  C   UNL d   1     -29.633  13.758 -11.761  0.00  0.00     0.135 A 
ATOM     50  N   UNL d   1     -30.076  14.143 -14.519  0.00  0.00    -0.222 NA
ATOM     51  C   UNL d   1     -29.635  15.076 -13.667  0.00  0.00     0.237 A 
ATOM     52  N   UNL d   1     -29.395  14.951 -12.343  0.00  0.00    -0.228 NA
BRANCH  49  53
ATOM     53  N   UNL d   1     -29.395  13.639 -10.400  0.00  0.00    -0.285 NA
ATOM     54  H   UNL d   1     -28.915  12.782 -10.160  0.00  0.00     0.125 HD
ATOM     55  H   UNL d   1     -30.189  13.914  -9.831  0.00  0.00     0.125 HD
ENDBRANCH  49  53
ENDBRANCH  41  44
BRANCH  42  56
ATOM     56  O   UNL d   1     -31.144  10.013 -17.742  0.00  0.00    -0.388 OA
ATOM     57  H   UNL d   1     -31.081  10.919 -18.110  0.00  0.00     0.210 HD
ENDBRANCH  42  56
BRANCH  43  58
ATOM     58  O   UNL d   1     -32.751   8.330 -16.384  0.00  0.00    -0.286 OA
BRANCH  58  59
ATOM     59  P   UNL d   1     -33.075   6.906 -15.457  0.00  0.00     0.391 P 
ATOM     60  O   UNL d   1     -33.364   5.630 -14.627  0.00  0.00    -0.632 OA
BRANCH  59  61
ATOM     61  O   UNL d   1     -31.447   6.887 -15.314  0.00  0.00    -0.307 OA
ATOM     62  H   UNL d   1     -31.157   5.986 -15.537  0.00  0.00     0.222 HD
ENDBRANCH  59  61
BRANCH  59  63
ATOM     63  O   UNL d   1     -33.332   7.970 -14.231  0.00  0.00    -0.307 OA
ATOM     64  H   UNL d   1     -34.091   7.680 -13.687  0.00  0.00     0.222 HD
ENDBRANCH  59  63
ENDBRANCH  58  59
ENDBRANCH  43  58
ENDBRANCH  38  39
ENDBRANCH  37  38
ENDBRANCH  33  37
ENDBRANCH   1  33
TORSDOF 29
ENDMDL
MODEL 9
REMARK VINA RESULT:      -7.0      2.897      7.808
REMARK  29 active torsions:
REMARK  status: ('A' for Active; 'I' for Inactive)
REMARK    1  A    between atoms: C_2  and  C_3 
REMARK    2  A    between atoms: C_3  and  C_5 
REMARK    3  A    between atoms: C_5  and  S_6 
REMARK    4  A    between atoms: S_6  and  C_8 
REMARK    5  A    between atoms: C_8  and  C_9 
REMARK    6  A    between atoms: C_9  and  N_10 
REMARK       I    between atoms: N_10  and  C_11 
REMARK    7  A    between atoms: C_11  and  C_12 
REMARK    8  A    between atoms: C_12  and  C_14 
REMARK    9  A    between atoms: C_14  and  N_15 
REMARK       I    between atoms: N_15  and  C_16 
REMARK   10  A    between atoms: C_16  and  C_17 
REMARK   11  A    between atoms: C_17  and  O_20 
REMARK   12  A    between atoms: C_17  and  C_19 
REMARK   13  A    between atoms: C_19  and  C_21 
REMARK   14  A    between atoms: C_21  and  O_24 
REMARK   15  A    between atoms: O_24  and  P_25 
REMARK   16  A    between atoms: P_25  and  O_28 
REMARK   17  A    between atoms: P_25  and  O_26 
REMARK   18  A    between atoms: O_26  and  P_29 
REMARK   19  A    between atoms: P_29  and  O_32 
REMARK   20  A    between atoms: P_29  and  O_30 
REMARK   21  A    between atoms: O_30  and  C_33 
REMARK   22  A    between atoms: C_34  and  C_33 
REMARK   23  A    between atoms: C_36  and  O_38 
REMARK   24  A    between atoms: C_37  and  N_40 
REMARK   25  A    between atoms: O_38  and  P_41 
REMARK   26  A    between atoms: C_39  and  O_42 
REMARK   27  A    between atoms: P_41  and  O_46 
REMARK   28  A    between atoms: P_41  and  O_47 
REMARK   29  A    between atoms: C_52  and  N_54 
ROOT
ATOM      1  O   UNL d   1     -24.985 -14.074 -11.701  0.00  0.00    -0.195 OA
ENDROOT
BRANCH   1   2
ATOM      2  P   UNL d   1     -25.509 -13.213 -13.186  0.00  0.00     0.401 P 
ATOM      3  O   UNL d   1     -25.130 -11.775 -13.446  0.00  0.00    -0.631 OA
BRANCH   2   4
ATOM      4  O   UNL d   1     -26.978 -13.481 -13.834  0.00  0.00    -0.296 OA
BRANCH   4   5
ATOM      5  C   UNL d   1     -27.821 -14.495 -13.192  0.00  0.00     0.192 C 
BRANCH   5   6
ATOM      6  C   UNL d   1     -28.433 -15.759 -13.981  0.00  0.00     0.009 C 
ATOM      7  C   UNL d   1     -29.379 -15.319 -15.105  0.00  0.00     0.020 C 
ATOM      8  C   UNL d   1     -29.237 -16.730 -13.064  0.00  0.00     0.020 C 
BRANCH   6   9
ATOM      9  C   UNL d   1     -27.265 -16.639 -14.597  0.00  0.00     0.219 C 
BRANCH   9  10
ATOM     10  C   UNL d   1     -26.904 -16.294 -16.056  0.00  0.00     0.247 C 
ATOM     11  N   UNL d   1     -26.272 -15.086 -16.266  0.00  0.00    -0.358 N 
ATOM     12  H   UNL d   1     -25.997 -14.526 -15.468  0.00  0.00     0.162 HD
ATOM     13  O   UNL d   1     -27.184 -17.068 -16.973  0.00  0.00    -0.271 OA
BRANCH  11  14
ATOM     14  C   UNL d   1     -25.730 -14.768 -17.579  0.00  0.00     0.132 C 
BRANCH  14  15
ATOM     15  C   UNL d   1     -24.225 -14.949 -17.667  0.00  0.00     0.122 C 
BRANCH  15  16
ATOM     16  C   UNL d   1     -23.582 -13.587 -17.832  0.00  0.00     0.219 C 
ATOM     17  N   UNL d   1     -23.779 -12.730 -16.773  0.00  0.00    -0.360 N 
ATOM     18  H   UNL d   1     -24.055 -13.116 -15.877  0.00  0.00     0.162 HD
ATOM     19  O   UNL d   1     -22.997 -13.268 -18.864  0.00  0.00    -0.274 OA
BRANCH  17  20
ATOM     20  C   UNL d   1     -23.230 -11.381 -16.786  0.00  0.00     0.133 C 
BRANCH  20  21
ATOM     21  C   UNL d   1     -22.221 -11.110 -15.662  0.00  0.00     0.102 C 
BRANCH  21  22
ATOM     22  S   UNL d   1     -20.715 -10.308 -16.309  0.00  0.00    -0.091 SA
BRANCH  22  23
ATOM     23  C   UNL d   1     -21.236  -8.616 -16.307  0.00  0.00     0.186 C 
ATOM     24  O   UNL d   1     -21.317  -7.970 -17.346  0.00  0.00    -0.286 OA
BRANCH  23  25
ATOM     25  C   UNL d   1     -21.517  -8.062 -14.922  0.00  0.00     0.094 C 
BRANCH  25  26
ATOM     26  C   UNL d   1     -20.586  -6.902 -14.529  0.00  0.00    -0.015 C 
ATOM     27  C   UNL d   1     -20.894  -6.392 -13.119  0.00  0.00     0.010 C 
ATOM     28  C   UNL d   1     -19.120  -7.344 -14.595  0.00  0.00     0.010 C 
ENDBRANCH  25  26
ENDBRANCH  23  25
ENDBRANCH  22  23
ENDBRANCH  21  22
ENDBRANCH  20  21
ENDBRANCH  17  20
ENDBRANCH  15  16
ENDBRANCH  14  15
ENDBRANCH  11  14
ENDBRANCH   9  10
BRANCH   9  29
ATOM     29  O   UNL d   1     -26.077 -16.530 -13.802  0.00  0.00    -0.385 OA
ATOM     30  H   UNL d   1     -25.358 -16.248 -14.401  0.00  0.00     0.210 HD
ENDBRANCH   9  29
ENDBRANCH   6   9
ENDBRANCH   5   6
ENDBRANCH   4   5
ENDBRANCH   2   4
BRANCH   2  31
ATOM     31  O   UNL d   1     -24.573 -14.009 -14.235  0.00  0.00    -0.307 OA
ATOM     32  H   UNL d   1     -23.657 -13.891 -13.885  0.00  0.00     0.222 HD
ENDBRANCH   2  31
ENDBRANCH   1   2
BRANCH   1  33
ATOM     33  P   UNL d   1     -24.761 -12.754 -10.606  0.00  0.00     0.401 P 
ATOM     34  O   UNL d   1     -24.433 -13.734  -9.487  0.00  0.00    -0.631 OA
BRANCH  33  35
ATOM     35  O   UNL d   1     -26.324 -12.380 -10.776  0.00  0.00    -0.307 OA
ATOM     36  H   UNL d   1     -26.626 -11.629 -10.246  0.00  0.00     0.222 HD
ENDBRANCH  33  35
BRANCH  33  37
ATOM     37  O   UNL d   1     -24.536 -11.433  -9.511  0.00  0.00    -0.294 OA
BRANCH  37  38
ATOM     38  C   UNL d   1     -24.215 -10.128 -10.136  0.00  0.00     0.215 C 
BRANCH  38  39
ATOM     39  C   UNL d   1     -22.984  -9.360  -9.559  0.00  0.00     0.180 C 
ATOM     40  O   UNL d   1     -23.228  -9.128  -8.148  0.00  0.00    -0.353 OA
ATOM     41  C   UNL d   1     -21.999  -9.278  -7.413  0.00  0.00     0.262 C 
ATOM     42  C   UNL d   1     -20.907  -9.126  -8.474  0.00  0.00     0.199 C 
ATOM     43  C   UNL d   1     -21.523  -9.884  -9.662  0.00  0.00     0.197 C 
BRANCH  41  44
ATOM     44  N   UNL d   1     -22.043 -10.540  -6.701  0.00  0.00    -0.294 N 
ATOM     45  C   UNL d   1     -22.869 -11.597  -7.012  0.00  0.00     0.214 A 
ATOM     46  N   UNL d   1     -22.732 -12.592  -6.161  0.00  0.00    -0.236 NA
ATOM     47  C   UNL d   1     -21.780 -12.155  -5.260  0.00  0.00     0.144 A 
ATOM     48  C   UNL d   1     -21.344 -10.890  -5.598  0.00  0.00     0.166 A 
ATOM     49  C   UNL d   1     -21.208 -12.759  -4.127  0.00  0.00     0.135 A 
ATOM     50  N   UNL d   1     -20.394 -10.184  -4.939  0.00  0.00    -0.222 NA
ATOM     51  C   UNL d   1     -19.911 -10.854  -3.887  0.00  0.00     0.237 A 
ATOM     52  N   UNL d   1     -20.250 -12.087  -3.454  0.00  0.00    -0.228 NA
BRANCH  49  53
ATOM     53  N   UNL d   1     -21.560 -14.020  -3.671  0.00  0.00    -0.285 NA
ATOM     54  H   UNL d   1     -22.325 -13.998  -3.011  0.00  0.00     0.125 HD
ATOM     55  H   UNL d   1     -20.759 -14.603  -3.451  0.00  0.00     0.125 HD
ENDBRANCH  49  53
ENDBRANCH  41  44
BRANCH  42  56
ATOM     56  O   UNL d   1     -20.691  -7.741  -8.840  0.00  0.00    -0.388 OA
ATOM     57  H   UNL d   1     -21.369  -7.195  -8.391  0.00  0.00     0.210 HD
ENDBRANCH  42  56
BRANCH  43  58
ATOM     58  O   UNL d   1     -20.858  -9.503 -10.871  0.00  0.00    -0.286 OA
BRANCH  58  59
ATOM     59  P   UNL d   1     -19.261 -10.097 -11.173  0.00  0.00     0.391 P 
ATOM     60  O   UNL d   1     -17.832 -10.629 -11.444  0.00  0.00    -0.632 OA
BRANCH  59  61
ATOM     61  O   UNL d   1     -19.802 -10.149 -12.714  0.00  0.00    -0.307 OA
ATOM     62  H   UNL d   1     -20.262  -9.308 -12.877  0.00  0.00     0.222 HD
ENDBRANCH  59  61
BRANCH  59  63
ATOM     63  O   UNL d   1     -18.858  -8.504 -11.197  0.00  0.00    -0.307 OA
ATOM     64  H   UNL d   1     -18.952  -8.147 -12.102  0.00  0.00     0.222 HD
ENDBRANCH  59  63
ENDBRANCH  58  59
ENDBRANCH  43  58
ENDBRANCH  38  39
ENDBRANCH  37  38
ENDBRANCH  33  37
ENDBRANCH   1  33
TORSDOF 29
ENDMDL
