MODEL 1
REMARK VINA RESULT:      -7.0      0.000      0.000
REMARK  4 active torsions:
REMARK  status: ('A' for Active; 'I' for Inactive)
REMARK    1  A    between atoms: C_2  and  O_1 
REMARK    2  A    between atoms: CA_3  and  C_2 
REMARK    3  A    between atoms: C_9  and  C_6 
REMARK    4  A    between atoms: O_12  and  C_9 
ROOT
ATOM      1  CA  UNL d   1     -27.037  11.009 -23.649  0.00  0.00     0.146 A 
ATOM      2  N   UNL d   1     -26.491   9.867 -23.104  0.00  0.00    -0.253 NA
ATOM      3  C   UNL d   1     -26.335  11.870 -24.482  0.00  0.00     0.073 A 
ATOM      4  C   UNL d   1     -25.188   9.630 -23.356  0.00  0.00     0.117 A 
ATOM      5  C   UNL d   1     -24.996  11.559 -24.753  0.00  0.00     0.022 A 
ATOM      6  C   UNL d   1     -24.408  10.440 -24.164  0.00  0.00     0.020 A 
ENDROOT
BRANCH   1   7
ATOM      7  C   UNL d   1     -28.443  11.243 -23.208  0.00  0.00     0.196 C 
ATOM      8  OXT UNL d   1     -29.437  10.792 -23.737  0.00  0.00    -0.645 OA
BRANCH   7   9
ATOM      9  O   UNL d   1     -28.462  12.127 -22.173  0.00  0.00    -0.772 OA
ATOM     10  H   UNL d   1     -28.701  11.654 -21.342  0.00  0.00     0.167 HD
ENDBRANCH   7   9
ENDBRANCH   1   7
BRANCH   3  11
ATOM     11  C   UNL d   1     -26.993  12.968 -25.207  0.00  0.00     0.178 C 
ATOM     12  O   UNL d   1     -27.634  12.794 -26.225  0.00  0.00    -0.646 OA
BRANCH  11  13
ATOM     13  O   UNL d   1     -26.711  14.194 -24.709  0.00  0.00    -0.773 OA
ATOM     14  H   UNL d   1     -26.715  14.937 -25.340  0.00  0.00     0.167 HD
ENDBRANCH  11  13
ENDBRANCH   3  11
TORSDOF 4
ENDMDL
MODEL 2
REMARK VINA RESULT:      -7.0      1.044      2.823
REMARK  4 active torsions:
REMARK  status: ('A' for Active; 'I' for Inactive)
REMARK    1  A    between atoms: C_2  and  O_1 
REMARK    2  A    between atoms: CA_3  and  C_2 
REMARK    3  A    between atoms: C_9  and  C_6 
REMARK    4  A    between atoms: O_12  and  C_9 
ROOT
ATOM      1  CA  UNL d   1     -26.491  11.433 -24.808  0.00  0.00     0.146 A 
ATOM      2  N   UNL d   1     -25.164  11.192 -25.090  0.00  0.00    -0.253 NA
ATOM      3  C   UNL d   1     -27.154  10.879 -23.721  0.00  0.00     0.073 A 
ATOM      4  C   UNL d   1     -24.515  10.321 -24.292  0.00  0.00     0.117 A 
ATOM      5  C   UNL d   1     -26.427  10.014 -22.893  0.00  0.00     0.022 A 
ATOM      6  C   UNL d   1     -25.100   9.712 -23.194  0.00  0.00     0.020 A 
ENDROOT
BRANCH   1   7
ATOM      7  C   UNL d   1     -27.146  12.310 -25.822  0.00  0.00     0.196 C 
ATOM      8  OXT UNL d   1     -27.497  11.971 -26.933  0.00  0.00    -0.645 OA
BRANCH   7   9
ATOM      9  O   UNL d   1     -27.207  13.588 -25.358  0.00  0.00    -0.772 OA
ATOM     10  H   UNL d   1     -28.140  13.903 -25.388  0.00  0.00     0.167 HD
ENDBRANCH   7   9
ENDBRANCH   1   7
BRANCH   3  11
ATOM     11  C   UNL d   1     -28.506  11.304 -23.329  0.00  0.00     0.178 C 
ATOM     12  O   UNL d   1     -29.506  10.960 -23.929  0.00  0.00    -0.646 OA
BRANCH  11  13
ATOM     13  O   UNL d   1     -28.520  12.210 -22.323  0.00  0.00    -0.773 OA
ATOM     14  H   UNL d   1     -28.330  13.136 -22.563  0.00  0.00     0.167 HD
ENDBRANCH  11  13
ENDBRANCH   3  11
TORSDOF 4
ENDMDL
MODEL 3
REMARK VINA RESULT:      -6.9     46.003     46.924
REMARK  4 active torsions:
REMARK  status: ('A' for Active; 'I' for Inactive)
REMARK    1  A    between atoms: C_2  and  O_1 
REMARK    2  A    between atoms: CA_3  and  C_2 
REMARK    3  A    between atoms: C_9  and  C_6 
REMARK    4  A    between atoms: O_12  and  C_9 
ROOT
ATOM      1  CA  UNL d   1     -16.519 -14.325  13.268  0.00  0.00     0.146 A 
ATOM      2  N   UNL d   1     -17.408 -13.348  13.661  0.00  0.00    -0.253 NA
ATOM      3  C   UNL d   1     -15.141 -14.191  13.368  0.00  0.00     0.073 A 
ATOM      4  C   UNL d   1     -16.886 -12.186  14.101  0.00  0.00     0.117 A 
ATOM      5  C   UNL d   1     -14.645 -12.982  13.874  0.00  0.00     0.022 A 
ATOM      6  C   UNL d   1     -15.525 -11.959  14.222  0.00  0.00     0.020 A 
ENDROOT
BRANCH   1   7
ATOM      7  C   UNL d   1     -17.197 -15.518  12.681  0.00  0.00     0.196 C 
ATOM      8  OXT UNL d   1     -17.614 -15.610  11.545  0.00  0.00    -0.645 OA
BRANCH   7   9
ATOM      9  O   UNL d   1     -17.374 -16.468  13.639  0.00  0.00    -0.772 OA
ATOM     10  H   UNL d   1     -18.196 -16.977  13.447  0.00  0.00     0.167 HD
ENDBRANCH   7   9
ENDBRANCH   1   7
BRANCH   3  11
ATOM     11  C   UNL d   1     -14.225 -15.316  13.131  0.00  0.00     0.178 C 
ATOM     12  O   UNL d   1     -14.089 -16.233  13.918  0.00  0.00    -0.646 OA
BRANCH  11  13
ATOM     13  O   UNL d   1     -13.460 -15.170  12.024  0.00  0.00    -0.773 OA
ATOM     14  H   UNL d   1     -13.620 -15.795  11.293  0.00  0.00     0.167 HD
ENDBRANCH  11  13
ENDBRANCH   3  11
TORSDOF 4
ENDMDL
MODEL 4
REMARK VINA RESULT:      -6.8      2.852      4.063
REMARK  4 active torsions:
REMARK  status: ('A' for Active; 'I' for Inactive)
REMARK    1  A    between atoms: C_2  and  O_1 
REMARK    2  A    between atoms: CA_3  and  C_2 
REMARK    3  A    between atoms: C_9  and  C_6 
REMARK    4  A    between atoms: O_12  and  C_9 
ROOT
ATOM      1  CA  UNL d   1     -25.838  10.875 -24.404  0.00  0.00     0.146 A 
ATOM      2  N   UNL d   1     -26.188  11.716 -23.370  0.00  0.00    -0.253 NA
ATOM      3  C   UNL d   1     -26.758  10.127 -25.126  0.00  0.00     0.073 A 
ATOM      4  C   UNL d   1     -27.489  11.750 -23.020  0.00  0.00     0.117 A 
ATOM      5  C   UNL d   1     -28.106  10.228 -24.756  0.00  0.00     0.022 A 
ATOM      6  C   UNL d   1     -28.474  11.029 -23.676  0.00  0.00     0.020 A 
ENDROOT
BRANCH   1   7
ATOM      7  C   UNL d   1     -24.364  10.818 -24.627  0.00  0.00     0.196 C 
ATOM      8  OXT UNL d   1     -23.592  10.059 -24.079  0.00  0.00    -0.645 OA
BRANCH   7   9
ATOM      9  O   UNL d   1     -23.985  11.817 -25.470  0.00  0.00    -0.772 OA
ATOM     10  H   UNL d   1     -23.100  12.157 -25.197  0.00  0.00     0.167 HD
ENDBRANCH   7   9
ENDBRANCH   1   7
BRANCH   3  11
ATOM     11  C   UNL d   1     -26.387   9.395 -26.347  0.00  0.00     0.178 C 
ATOM     12  O   UNL d   1     -26.325   9.923 -27.440  0.00  0.00    -0.646 OA
BRANCH  11  13
ATOM     13  O   UNL d   1     -26.248   8.062 -26.158  0.00  0.00    -0.773 OA
ATOM     14  H   UNL d   1     -26.881   7.484 -26.623  0.00  0.00     0.167 HD
ENDBRANCH  11  13
ENDBRANCH   3  11
TORSDOF 4
ENDMDL
MODEL 5
REMARK VINA RESULT:      -6.8      2.861      3.770
REMARK  4 active torsions:
REMARK  status: ('A' for Active; 'I' for Inactive)
REMARK    1  A    between atoms: C_2  and  O_1 
REMARK    2  A    between atoms: CA_3  and  C_2 
REMARK    3  A    between atoms: C_9  and  C_6 
REMARK    4  A    between atoms: O_12  and  C_9 
ROOT
ATOM      1  CA  UNL d   1     -26.704  10.110 -25.069  0.00  0.00     0.146 A 
ATOM      2  N   UNL d   1     -28.027   9.962 -24.712  0.00  0.00    -0.253 NA
ATOM      3  C   UNL d   1     -25.796  10.868 -24.342  0.00  0.00     0.073 A 
ATOM      4  C   UNL d   1     -28.451  10.649 -23.632  0.00  0.00     0.117 A 
ATOM      5  C   UNL d   1     -26.272  11.528 -23.201  0.00  0.00     0.022 A 
ATOM      6  C   UNL d   1     -27.619  11.438 -22.856  0.00  0.00     0.020 A 
ENDROOT
BRANCH   1   7
ATOM      7  C   UNL d   1     -26.369   9.411 -26.344  0.00  0.00     0.196 C 
ATOM      8  OXT UNL d   1     -26.297   9.929 -27.439  0.00  0.00    -0.645 OA
BRANCH   7   9
ATOM      9  O   UNL d   1     -26.252   8.074 -26.121  0.00  0.00    -0.772 OA
ATOM     10  H   UNL d   1     -25.379   7.762 -26.456  0.00  0.00     0.167 HD
ENDBRANCH   7   9
ENDBRANCH   1   7
BRANCH   3  11
ATOM     11  C   UNL d   1     -24.353  10.849 -24.628  0.00  0.00     0.178 C 
ATOM     12  O   UNL d   1     -23.582  10.083 -24.083  0.00  0.00    -0.646 OA
BRANCH  11  13
ATOM     13  O   UNL d   1     -23.951  11.843 -25.454  0.00  0.00    -0.773 OA
ATOM     14  H   UNL d   1     -24.407  11.912 -26.313  0.00  0.00     0.167 HD
ENDBRANCH  11  13
ENDBRANCH   3  11
TORSDOF 4
ENDMDL
MODEL 6
REMARK VINA RESULT:      -6.6      1.782      3.206
REMARK  4 active torsions:
REMARK  status: ('A' for Active; 'I' for Inactive)
REMARK    1  A    between atoms: C_2  and  O_1 
REMARK    2  A    between atoms: CA_3  and  C_2 
REMARK    3  A    between atoms: C_9  and  C_6 
REMARK    4  A    between atoms: O_12  and  C_9 
ROOT
ATOM      1  CA  UNL d   1     -27.055  11.026 -23.529  0.00  0.00     0.146 A 
ATOM      2  N   UNL d   1     -26.309  12.012 -24.138  0.00  0.00    -0.253 NA
ATOM      3  C   UNL d   1     -26.553   9.770 -23.215  0.00  0.00     0.073 A 
ATOM      4  C   UNL d   1     -25.048  11.694 -24.495  0.00  0.00     0.117 A 
ATOM      5  C   UNL d   1     -25.224   9.500 -23.565  0.00  0.00     0.022 A 
ATOM      6  C   UNL d   1     -24.469  10.463 -24.234  0.00  0.00     0.020 A 
ENDROOT
BRANCH   1   7
ATOM      7  C   UNL d   1     -28.469  11.439 -23.290  0.00  0.00     0.196 C 
ATOM      8  OXT UNL d   1     -29.407  11.217 -24.027  0.00  0.00    -0.645 OA
BRANCH   7   9
ATOM      9  O   UNL d   1     -28.545  12.196 -22.162  0.00  0.00    -0.772 OA
ATOM     10  H   UNL d   1     -27.687  12.660 -22.020  0.00  0.00     0.167 HD
ENDBRANCH   7   9
ENDBRANCH   1   7
BRANCH   3  11
ATOM     11  C   UNL d   1     -27.303   8.810 -22.391  0.00  0.00     0.178 C 
ATOM     12  O   UNL d   1     -27.787   7.791 -22.843  0.00  0.00    -0.646 OA
BRANCH  11  13
ATOM     13  O   UNL d   1     -27.509   9.230 -21.121  0.00  0.00    -0.773 OA
ATOM     14  H   UNL d   1     -28.121   8.700 -20.577  0.00  0.00     0.167 HD
ENDBRANCH  11  13
ENDBRANCH   3  11
TORSDOF 4
ENDMDL
MODEL 7
REMARK VINA RESULT:      -6.5      2.289      3.090
REMARK  4 active torsions:
REMARK  status: ('A' for Active; 'I' for Inactive)
REMARK    1  A    between atoms: C_2  and  O_1 
REMARK    2  A    between atoms: CA_3  and  C_2 
REMARK    3  A    between atoms: C_9  and  C_6 
REMARK    4  A    between atoms: O_12  and  C_9 
ROOT
ATOM      1  CA  UNL d   1     -26.503  10.002 -24.256  0.00  0.00     0.146 A 
ATOM      2  N   UNL d   1     -26.236   9.375 -25.455  0.00  0.00    -0.253 NA
ATOM      3  C   UNL d   1     -26.993  11.297 -24.163  0.00  0.00     0.073 A 
ATOM      4  C   UNL d   1     -26.409  10.101 -26.577  0.00  0.00     0.117 A 
ATOM      5  C   UNL d   1     -27.199  11.998 -25.358  0.00  0.00     0.022 A 
ATOM      6  C   UNL d   1     -26.881  11.403 -26.578  0.00  0.00     0.020 A 
ENDROOT
BRANCH   1   7
ATOM      7  C   UNL d   1     -26.160   9.156 -23.075  0.00  0.00     0.196 C 
ATOM      8  OXT UNL d   1     -26.955   8.584 -22.359  0.00  0.00    -0.645 OA
BRANCH   7   9
ATOM      9  O   UNL d   1     -24.819   9.197 -22.850  0.00  0.00    -0.772 OA
ATOM     10  H   UNL d   1     -24.391   8.422 -23.285  0.00  0.00     0.167 HD
ENDBRANCH   7   9
ENDBRANCH   1   7
BRANCH   3  11
ATOM     11  C   UNL d   1     -27.455  11.870 -22.889  0.00  0.00     0.178 C 
ATOM     12  O   UNL d   1     -28.558  11.648 -22.429  0.00  0.00    -0.646 OA
BRANCH  11  13
ATOM     13  O   UNL d   1     -26.591  12.760 -22.349  0.00  0.00    -0.773 OA
ATOM     14  H   UNL d   1     -25.771  12.399 -21.964  0.00  0.00     0.167 HD
ENDBRANCH  11  13
ENDBRANCH   3  11
TORSDOF 4
ENDMDL
MODEL 8
REMARK VINA RESULT:      -6.4      1.849      2.725
REMARK  4 active torsions:
REMARK  status: ('A' for Active; 'I' for Inactive)
REMARK    1  A    between atoms: C_2  and  O_1 
REMARK    2  A    between atoms: CA_3  and  C_2 
REMARK    3  A    between atoms: C_9  and  C_6 
REMARK    4  A    between atoms: O_12  and  C_9 
ROOT
ATOM      1  CA  UNL d   1     -26.583   9.798 -23.345  0.00  0.00     0.146 A 
ATOM      2  N   UNL d   1     -25.211   9.691 -23.281  0.00  0.00    -0.253 NA
ATOM      3  C   UNL d   1     -27.246  10.584 -24.278  0.00  0.00     0.073 A 
ATOM      4  C   UNL d   1     -24.496  10.446 -24.139  0.00  0.00     0.117 A 
ATOM      5  C   UNL d   1     -26.463  11.317 -25.179  0.00  0.00     0.022 A 
ATOM      6  C   UNL d   1     -25.072  11.267 -25.094  0.00  0.00     0.020 A 
ENDROOT
BRANCH   1   7
ATOM      7  C   UNL d   1     -27.272   9.021 -22.274  0.00  0.00     0.196 C 
ATOM      8  OXT UNL d   1     -27.689   9.471 -21.227  0.00  0.00    -0.645 OA
BRANCH   7   9
ATOM      9  O   UNL d   1     -27.281   7.698 -22.595  0.00  0.00    -0.772 OA
ATOM     10  H   UNL d   1     -26.790   7.192 -21.906  0.00  0.00     0.167 HD
ENDBRANCH   7   9
ENDBRANCH   1   7
BRANCH   3  11
ATOM     11  C   UNL d   1     -28.706  10.527 -24.454  0.00  0.00     0.178 C 
ATOM     12  O   UNL d   1     -29.252   9.711 -25.169  0.00  0.00    -0.646 OA
BRANCH  11  13
ATOM     13  O   UNL d   1     -29.365  11.542 -23.849  0.00  0.00    -0.773 OA
ATOM     14  H   UNL d   1     -28.826  12.293 -23.538  0.00  0.00     0.167 HD
ENDBRANCH  11  13
ENDBRANCH   3  11
TORSDOF 4
ENDMDL
MODEL 9
REMARK VINA RESULT:      -6.2      1.971      2.916
REMARK  4 active torsions:
REMARK  status: ('A' for Active; 'I' for Inactive)
REMARK    1  A    between atoms: C_2  and  O_1 
REMARK    2  A    between atoms: CA_3  and  C_2 
REMARK    3  A    between atoms: C_9  and  C_6 
REMARK    4  A    between atoms: O_12  and  C_9 
ROOT
ATOM      1  CA  UNL d   1     -26.894  10.985 -25.064  0.00  0.00     0.146 A 
ATOM      2  N   UNL d   1     -27.776   9.931 -24.978  0.00  0.00    -0.253 NA
ATOM      3  C   UNL d   1     -25.778  11.118 -24.248  0.00  0.00     0.073 A 
ATOM      4  C   UNL d   1     -27.559   9.028 -24.001  0.00  0.00     0.117 A 
ATOM      5  C   UNL d   1     -25.568  10.131 -23.276  0.00  0.00     0.022 A 
ATOM      6  C   UNL d   1     -26.481   9.087 -23.134  0.00  0.00     0.020 A 
ENDROOT
BRANCH   1   7
ATOM      7  C   UNL d   1     -27.294  11.990 -26.092  0.00  0.00     0.196 C 
ATOM      8  OXT UNL d   1     -27.227  11.840 -27.294  0.00  0.00    -0.645 OA
BRANCH   7   9
ATOM      9  O   UNL d   1     -27.657  13.153 -25.486  0.00  0.00    -0.772 OA
ATOM     10  H   UNL d   1     -27.058  13.877 -25.783  0.00  0.00     0.167 HD
ENDBRANCH   7   9
ENDBRANCH   1   7
BRANCH   3  11
ATOM     11  C   UNL d   1     -24.748  12.139 -24.489  0.00  0.00     0.178 C 
ATOM     12  O   UNL d   1     -24.762  13.230 -23.952  0.00  0.00    -0.646 OA
BRANCH  11  13
ATOM     13  O   UNL d   1     -23.861  11.799 -25.453  0.00  0.00    -0.773 OA
ATOM     14  H   UNL d   1     -24.138  11.105 -26.080  0.00  0.00     0.167 HD
ENDBRANCH  11  13
ENDBRANCH   3  11
TORSDOF 4
ENDMDL
