MODEL 1
REMARK VINA RESULT:      -4.4      0.000      0.000
REMARK  6 active torsions:
REMARK  status: ('A' for Active; 'I' for Inactive)
REMARK    1  A    between atoms: O_1  and  C_2 
REMARK    2  A    between atoms: C_2  and  C_3 
REMARK    3  A    between atoms: C_3  and  C_5 
REMARK    4  A    between atoms: C_5  and  C_6 
REMARK    5  A    between atoms: C_6  and  C_7 
REMARK    6  A    between atoms: C_7  and  O_10 
ROOT
ATOM      1  C   UNL d   1     -27.434  -3.710   6.771  0.00  0.00     0.101 C 
ENDROOT
BRANCH   1   2
ATOM      2  C   UNL d   1     -27.692  -5.128   7.273  0.00  0.00     0.118 C 
BRANCH   2   3
ATOM      3  C   UNL d   1     -27.650  -6.121   6.137  0.00  0.00     0.139 C 
ATOM      4  O   UNL d   1     -28.451  -6.164   5.218  0.00  0.00    -0.650 OA
BRANCH   3   5
ATOM      5  O   UNL d   1     -26.614  -6.983   6.235  0.00  0.00    -0.776 OA
ATOM      6  H   UNL d   1     -25.805  -6.698   5.771  0.00  0.00     0.167 HD
ENDBRANCH   3   5
ENDBRANCH   2   3
ENDBRANCH   1   2
BRANCH   1   7
ATOM      7  C   UNL d   1     -28.548  -2.765   7.142  0.00  0.00     0.222 C 
ATOM      8  O   UNL d   1     -28.464  -1.828   7.930  0.00  0.00    -0.286 OA
BRANCH   7   9
ATOM      9  C   UNL d   1     -29.898  -3.009   6.465  0.00  0.00     0.213 C 
ATOM     10  O   UNL d   1     -30.959  -2.921   7.051  0.00  0.00    -0.644 OA
BRANCH   9  11
ATOM     11  O   UNL d   1     -29.742  -3.324   5.167  0.00  0.00    -0.771 OA
ATOM     12  H   UNL d   1     -28.974  -2.831   4.794  0.00  0.00     0.168 HD
ENDBRANCH   9  11
ENDBRANCH   7   9
ENDBRANCH   1   7
TORSDOF 6
ENDMDL
MODEL 2
REMARK VINA RESULT:      -4.3     20.899     21.710
REMARK  6 active torsions:
REMARK  status: ('A' for Active; 'I' for Inactive)
REMARK    1  A    between atoms: O_1  and  C_2 
REMARK    2  A    between atoms: C_2  and  C_3 
REMARK    3  A    between atoms: C_3  and  C_5 
REMARK    4  A    between atoms: C_5  and  C_6 
REMARK    5  A    between atoms: C_6  and  C_7 
REMARK    6  A    between atoms: C_7  and  O_10 
ROOT
ATOM      1  C   UNL d   1     -23.014  -2.125 -14.293  0.00  0.00     0.101 C 
ENDROOT
BRANCH   1   2
ATOM      2  C   UNL d   1     -23.908  -1.460 -15.334  0.00  0.00     0.118 C 
BRANCH   2   3
ATOM      3  C   UNL d   1     -23.285  -1.528 -16.707  0.00  0.00     0.139 C 
ATOM      4  O   UNL d   1     -22.265  -2.139 -16.980  0.00  0.00    -0.650 OA
BRANCH   3   5
ATOM      5  O   UNL d   1     -23.980  -0.830 -17.632  0.00  0.00    -0.776 OA
ATOM      6  H   UNL d   1     -24.452  -1.382 -18.285  0.00  0.00     0.167 HD
ENDBRANCH   3   5
ENDBRANCH   2   3
ENDBRANCH   1   2
BRANCH   1   7
ATOM      7  C   UNL d   1     -23.679  -2.207 -12.942  0.00  0.00     0.222 C 
ATOM      8  O   UNL d   1     -24.851  -2.508 -12.735  0.00  0.00    -0.286 OA
BRANCH   7   9
ATOM      9  C   UNL d   1     -22.800  -1.884 -11.733  0.00  0.00     0.213 C 
ATOM     10  O   UNL d   1     -21.606  -1.683 -11.816  0.00  0.00    -0.644 OA
BRANCH   9  11
ATOM     11  O   UNL d   1     -23.525  -1.854 -10.599  0.00  0.00    -0.771 OA
ATOM     12  H   UNL d   1     -23.823  -2.765 -10.369  0.00  0.00     0.168 HD
ENDBRANCH   9  11
ENDBRANCH   7   9
ENDBRANCH   1   7
TORSDOF 6
ENDMDL
MODEL 3
REMARK VINA RESULT:      -4.2     26.358     27.062
REMARK  6 active torsions:
REMARK  status: ('A' for Active; 'I' for Inactive)
REMARK    1  A    between atoms: O_1  and  C_2 
REMARK    2  A    between atoms: C_2  and  C_3 
REMARK    3  A    between atoms: C_3  and  C_5 
REMARK    4  A    between atoms: C_5  and  C_6 
REMARK    5  A    between atoms: C_6  and  C_7 
REMARK    6  A    between atoms: C_7  and  O_10 
ROOT
ATOM      1  C   UNL d   1     -22.506   5.326 -17.645  0.00  0.00     0.101 C 
ENDROOT
BRANCH   1   2
ATOM      2  C   UNL d   1     -21.406   5.406 -18.700  0.00  0.00     0.118 C 
BRANCH   2   3
ATOM      3  C   UNL d   1     -20.633   4.111 -18.775  0.00  0.00     0.139 C 
ATOM      4  O   UNL d   1     -21.059   3.071 -19.249  0.00  0.00    -0.650 OA
BRANCH   3   5
ATOM      5  O   UNL d   1     -19.391   4.214 -18.254  0.00  0.00    -0.776 OA
ATOM      6  H   UNL d   1     -18.697   4.436 -18.904  0.00  0.00     0.167 HD
ENDBRANCH   3   5
ENDBRANCH   2   3
ENDBRANCH   1   2
BRANCH   1   7
ATOM      7  C   UNL d   1     -23.859   5.059 -18.255  0.00  0.00     0.222 C 
ATOM      8  O   UNL d   1     -24.520   5.855 -18.916  0.00  0.00    -0.286 OA
BRANCH   7   9
ATOM      9  C   UNL d   1     -24.444   3.665 -18.023  0.00  0.00     0.213 C 
ATOM     10  O   UNL d   1     -25.231   3.417 -17.131  0.00  0.00    -0.644 OA
BRANCH   9  11
ATOM     11  O   UNL d   1     -23.975   2.783 -18.924  0.00  0.00    -0.771 OA
ATOM     12  H   UNL d   1     -22.998   2.693 -18.826  0.00  0.00     0.168 HD
ENDBRANCH   9  11
ENDBRANCH   7   9
ENDBRANCH   1   7
TORSDOF 6
ENDMDL
MODEL 4
REMARK VINA RESULT:      -4.2     29.715     31.021
REMARK  6 active torsions:
REMARK  status: ('A' for Active; 'I' for Inactive)
REMARK    1  A    between atoms: O_1  and  C_2 
REMARK    2  A    between atoms: C_2  and  C_3 
REMARK    3  A    between atoms: C_3  and  C_5 
REMARK    4  A    between atoms: C_5  and  C_6 
REMARK    5  A    between atoms: C_6  and  C_7 
REMARK    6  A    between atoms: C_7  and  O_10 
ROOT
ATOM      1  C   UNL d   1     -34.882 -13.778 -21.907  0.00  0.00     0.101 C 
ENDROOT
BRANCH   1   2
ATOM      2  C   UNL d   1     -35.353 -14.573 -20.692  0.00  0.00     0.118 C 
BRANCH   2   3
ATOM      3  C   UNL d   1     -35.929 -13.659 -19.637  0.00  0.00     0.139 C 
ATOM      4  O   UNL d   1     -35.639 -12.482 -19.500  0.00  0.00    -0.650 OA
BRANCH   3   5
ATOM      5  O   UNL d   1     -36.822 -14.283 -18.837  0.00  0.00    -0.776 OA
ATOM      6  H   UNL d   1     -37.680 -14.474 -19.260  0.00  0.00     0.167 HD
ENDBRANCH   3   5
ENDBRANCH   2   3
ENDBRANCH   1   2
BRANCH   1   7
ATOM      7  C   UNL d   1     -35.658 -14.131 -23.150  0.00  0.00     0.222 C 
ATOM      8  O   UNL d   1     -35.204 -14.682 -24.149  0.00  0.00    -0.286 OA
BRANCH   7   9
ATOM      9  C   UNL d   1     -37.143 -13.765 -23.150  0.00  0.00     0.213 C 
ATOM     10  O   UNL d   1     -37.548 -12.638 -22.947  0.00  0.00    -0.644 OA
BRANCH   9  11
ATOM     11  O   UNL d   1     -37.910 -14.842 -23.403  0.00  0.00    -0.771 OA
ATOM     12  H   UNL d   1     -38.763 -14.556 -23.805  0.00  0.00     0.168 HD
ENDBRANCH   9  11
ENDBRANCH   7   9
ENDBRANCH   1   7
TORSDOF 6
ENDMDL
MODEL 5
REMARK VINA RESULT:      -4.1     25.209     26.630
REMARK  6 active torsions:
REMARK  status: ('A' for Active; 'I' for Inactive)
REMARK    1  A    between atoms: O_1  and  C_2 
REMARK    2  A    between atoms: C_2  and  C_3 
REMARK    3  A    between atoms: C_3  and  C_5 
REMARK    4  A    between atoms: C_5  and  C_6 
REMARK    5  A    between atoms: C_6  and  C_7 
REMARK    6  A    between atoms: C_7  and  O_10 
ROOT
ATOM      1  C   UNL d   1     -20.890 -26.216  -6.077  0.00  0.00     0.101 C 
ENDROOT
BRANCH   1   2
ATOM      2  C   UNL d   1     -20.536 -25.471  -7.361  0.00  0.00     0.118 C 
BRANCH   2   3
ATOM      3  C   UNL d   1     -20.354 -23.996  -7.098  0.00  0.00     0.139 C 
ATOM      4  O   UNL d   1     -19.439 -23.509  -6.455  0.00  0.00    -0.650 OA
BRANCH   3   5
ATOM      5  O   UNL d   1     -21.326 -23.242  -7.658  0.00  0.00    -0.776 OA
ATOM      6  H   UNL d   1     -21.708 -22.568  -7.064  0.00  0.00     0.167 HD
ENDBRANCH   3   5
ENDBRANCH   2   3
ENDBRANCH   1   2
BRANCH   1   7
ATOM      7  C   UNL d   1     -19.740 -27.047  -5.567  0.00  0.00     0.222 C 
ATOM      8  O   UNL d   1     -19.518 -28.220  -5.853  0.00  0.00    -0.286 OA
BRANCH   7   9
ATOM      9  C   UNL d   1     -18.771 -26.349  -4.611  0.00  0.00     0.213 C 
ATOM     10  O   UNL d   1     -18.949 -26.295  -3.411  0.00  0.00    -0.644 OA
BRANCH   9  11
ATOM     11  O   UNL d   1     -17.726 -25.824  -5.275  0.00  0.00    -0.771 OA
ATOM     12  H   UNL d   1     -18.029 -25.070  -5.833  0.00  0.00     0.168 HD
ENDBRANCH   9  11
ENDBRANCH   7   9
ENDBRANCH   1   7
TORSDOF 6
ENDMDL
MODEL 6
REMARK VINA RESULT:      -4.0     25.406     26.575
REMARK  6 active torsions:
REMARK  status: ('A' for Active; 'I' for Inactive)
REMARK    1  A    between atoms: O_1  and  C_2 
REMARK    2  A    between atoms: C_2  and  C_3 
REMARK    3  A    between atoms: C_3  and  C_5 
REMARK    4  A    between atoms: C_5  and  C_6 
REMARK    5  A    between atoms: C_6  and  C_7 
REMARK    6  A    between atoms: C_7  and  O_10 
ROOT
ATOM      1  C   UNL d   1     -19.849 -26.702  -6.315  0.00  0.00     0.101 C 
ENDROOT
BRANCH   1   2
ATOM      2  C   UNL d   1     -19.199 -27.019  -4.971  0.00  0.00     0.118 C 
BRANCH   2   3
ATOM      3  C   UNL d   1     -17.697 -26.888  -5.052  0.00  0.00     0.139 C 
ATOM      4  O   UNL d   1     -16.908 -27.805  -4.894  0.00  0.00    -0.650 OA
BRANCH   3   5
ATOM      5  O   UNL d   1     -17.297 -25.627  -5.325  0.00  0.00    -0.776 OA
ATOM      6  H   UNL d   1     -16.992 -25.488  -6.241  0.00  0.00     0.167 HD
ENDBRANCH   3   5
ENDBRANCH   2   3
ENDBRANCH   1   2
BRANCH   1   7
ATOM      7  C   UNL d   1     -20.785 -25.523  -6.227  0.00  0.00     0.222 C 
ATOM      8  O   UNL d   1     -21.905 -25.530  -5.725  0.00  0.00    -0.286 OA
BRANCH   7   9
ATOM      9  C   UNL d   1     -20.277 -24.208  -6.819  0.00  0.00     0.213 C 
ATOM     10  O   UNL d   1     -19.271 -23.650  -6.429  0.00  0.00    -0.644 OA
BRANCH   9  11
ATOM     11  O   UNL d   1     -21.082 -23.775  -7.806  0.00  0.00    -0.771 OA
ATOM     12  H   UNL d   1     -21.573 -22.973  -7.509  0.00  0.00     0.168 HD
ENDBRANCH   9  11
ENDBRANCH   7   9
ENDBRANCH   1   7
TORSDOF 6
ENDMDL
MODEL 7
REMARK VINA RESULT:      -4.0     30.099     31.332
REMARK  6 active torsions:
REMARK  status: ('A' for Active; 'I' for Inactive)
REMARK    1  A    between atoms: O_1  and  C_2 
REMARK    2  A    between atoms: C_2  and  C_3 
REMARK    3  A    between atoms: C_3  and  C_5 
REMARK    4  A    between atoms: C_5  and  C_6 
REMARK    5  A    between atoms: C_6  and  C_7 
REMARK    6  A    between atoms: C_7  and  O_10 
ROOT
ATOM      1  C   UNL d   1     -35.311 -13.723 -22.316  0.00  0.00     0.101 C 
ENDROOT
BRANCH   1   2
ATOM      2  C   UNL d   1     -35.836 -14.621 -23.433  0.00  0.00     0.118 C 
BRANCH   2   3
ATOM      3  C   UNL d   1     -36.016 -13.843 -24.713  0.00  0.00     0.139 C 
ATOM      4  O   UNL d   1     -37.044 -13.277 -25.048  0.00  0.00    -0.650 OA
BRANCH   3   5
ATOM      5  O   UNL d   1     -34.902 -13.829 -25.477  0.00  0.00    -0.776 OA
ATOM      6  H   UNL d   1     -34.414 -12.984 -25.466  0.00  0.00     0.167 HD
ENDBRANCH   3   5
ENDBRANCH   2   3
ENDBRANCH   1   2
BRANCH   1   7
ATOM      7  C   UNL d   1     -36.413 -13.253 -21.401  0.00  0.00     0.222 C 
ATOM      8  O   UNL d   1     -37.571 -13.018 -21.732  0.00  0.00    -0.286 OA
BRANCH   7   9
ATOM      9  C   UNL d   1     -36.037 -13.059 -19.931  0.00  0.00     0.213 C 
ATOM     10  O   UNL d   1     -36.339 -13.849 -19.059  0.00  0.00    -0.644 OA
BRANCH   9  11
ATOM     11  O   UNL d   1     -35.342 -11.920 -19.753  0.00  0.00    -0.771 OA
ATOM     12  H   UNL d   1     -34.383 -12.126 -19.661  0.00  0.00     0.168 HD
ENDBRANCH   9  11
ENDBRANCH   7   9
ENDBRANCH   1   7
TORSDOF 6
ENDMDL
MODEL 8
REMARK VINA RESULT:      -3.9     30.471     31.791
REMARK  6 active torsions:
REMARK  status: ('A' for Active; 'I' for Inactive)
REMARK    1  A    between atoms: O_1  and  C_2 
REMARK    2  A    between atoms: C_2  and  C_3 
REMARK    3  A    between atoms: C_3  and  C_5 
REMARK    4  A    between atoms: C_5  and  C_6 
REMARK    5  A    between atoms: C_6  and  C_7 
REMARK    6  A    between atoms: C_7  and  O_10 
ROOT
ATOM      1  C   UNL d   1     -37.061 -13.978 -22.435  0.00  0.00     0.101 C 
ENDROOT
BRANCH   1   2
ATOM      2  C   UNL d   1     -36.820 -12.779 -21.524  0.00  0.00     0.118 C 
BRANCH   2   3
ATOM      3  C   UNL d   1     -35.802 -13.105 -20.458  0.00  0.00     0.139 C 
ATOM      4  O   UNL d   1     -35.978 -12.963 -19.259  0.00  0.00    -0.650 OA
BRANCH   3   5
ATOM      5  O   UNL d   1     -34.646 -13.583 -20.968  0.00  0.00    -0.776 OA
ATOM      6  H   UNL d   1     -34.315 -14.391 -20.532  0.00  0.00     0.167 HD
ENDBRANCH   3   5
ENDBRANCH   2   3
ENDBRANCH   1   2
BRANCH   1   7
ATOM      7  C   UNL d   1     -36.704 -13.682 -23.870  0.00  0.00     0.222 C 
ATOM      8  O   UNL d   1     -37.383 -13.035 -24.661  0.00  0.00    -0.286 OA
BRANCH   7   9
ATOM      9  C   UNL d   1     -35.371 -14.245 -24.367  0.00  0.00     0.213 C 
ATOM     10  O   UNL d   1     -34.698 -15.023 -23.721  0.00  0.00    -0.644 OA
BRANCH   9  11
ATOM     11  O   UNL d   1     -35.066 -13.768 -25.587  0.00  0.00    -0.771 OA
ATOM     12  H   UNL d   1     -34.201 -14.137 -25.884  0.00  0.00     0.168 HD
ENDBRANCH   9  11
ENDBRANCH   7   9
ENDBRANCH   1   7
TORSDOF 6
ENDMDL
MODEL 9
REMARK VINA RESULT:      -3.9      1.387      3.823
REMARK  6 active torsions:
REMARK  status: ('A' for Active; 'I' for Inactive)
REMARK    1  A    between atoms: O_1  and  C_2 
REMARK    2  A    between atoms: C_2  and  C_3 
REMARK    3  A    between atoms: C_3  and  C_5 
REMARK    4  A    between atoms: C_5  and  C_6 
REMARK    5  A    between atoms: C_6  and  C_7 
REMARK    6  A    between atoms: C_7  and  O_10 
ROOT
ATOM      1  C   UNL d   1     -28.318  -3.171   7.556  0.00  0.00     0.101 C 
ENDROOT
BRANCH   1   2
ATOM      2  C   UNL d   1     -29.687  -3.771   7.867  0.00  0.00     0.118 C 
BRANCH   2   3
ATOM      3  C   UNL d   1     -30.782  -3.022   7.148  0.00  0.00     0.139 C 
ATOM      4  O   UNL d   1     -30.750  -2.696   5.972  0.00  0.00    -0.650 OA
BRANCH   3   5
ATOM      5  O   UNL d   1     -31.833  -2.737   7.949  0.00  0.00    -0.776 OA
ATOM      6  H   UNL d   1     -32.201  -1.841   7.830  0.00  0.00     0.167 HD
ENDBRANCH   3   5
ENDBRANCH   2   3
ENDBRANCH   1   2
BRANCH   1   7
ATOM      7  C   UNL d   1     -27.671  -3.823   6.361  0.00  0.00     0.222 C 
ATOM      8  O   UNL d   1     -27.020  -3.249   5.493  0.00  0.00    -0.286 OA
BRANCH   7   9
ATOM      9  C   UNL d   1     -27.849  -5.337   6.235  0.00  0.00     0.213 C 
ATOM     10  O   UNL d   1     -27.453  -6.123   7.073  0.00  0.00    -0.644 OA
BRANCH   9  11
ATOM     11  O   UNL d   1     -28.490  -5.659   5.097  0.00  0.00    -0.771 OA
ATOM     12  H   UNL d   1     -29.394  -5.265   5.101  0.00  0.00     0.168 HD
ENDBRANCH   9  11
ENDBRANCH   7   9
ENDBRANCH   1   7
TORSDOF 6
ENDMDL
