MODEL 1
REMARK VINA RESULT:      -6.8      0.000      0.000
REMARK  29 active torsions:
REMARK  status: ('A' for Active; 'I' for Inactive)
REMARK    1  A    between atoms: C_2  and  C_3 
REMARK    2  A    between atoms: C_3  and  C_5 
REMARK    3  A    between atoms: C_5  and  S_6 
REMARK    4  A    between atoms: S_6  and  C_8 
REMARK    5  A    between atoms: C_8  and  C_9 
REMARK    6  A    between atoms: C_9  and  N_10 
REMARK       I    between atoms: N_10  and  C_11 
REMARK    7  A    between atoms: C_11  and  C_12 
REMARK    8  A    between atoms: C_12  and  C_14 
REMARK    9  A    between atoms: C_14  and  N_15 
REMARK       I    between atoms: N_15  and  C_16 
REMARK   10  A    between atoms: C_16  and  C_17 
REMARK   11  A    between atoms: C_17  and  O_20 
REMARK   12  A    between atoms: C_17  and  C_19 
REMARK   13  A    between atoms: C_19  and  C_21 
REMARK   14  A    between atoms: C_21  and  O_24 
REMARK   15  A    between atoms: O_24  and  P_25 
REMARK   16  A    between atoms: P_25  and  O_28 
REMARK   17  A    between atoms: P_25  and  O_26 
REMARK   18  A    between atoms: O_26  and  P_29 
REMARK   19  A    between atoms: P_29  and  O_32 
REMARK   20  A    between atoms: P_29  and  O_30 
REMARK   21  A    between atoms: O_30  and  C_33 
REMARK   22  A    between atoms: C_34  and  C_33 
REMARK   23  A    between atoms: C_36  and  O_38 
REMARK   24  A    between atoms: C_37  and  N_40 
REMARK   25  A    between atoms: O_38  and  P_41 
REMARK   26  A    between atoms: C_39  and  O_42 
REMARK   27  A    between atoms: P_41  and  O_46 
REMARK   28  A    between atoms: P_41  and  O_47 
REMARK   29  A    between atoms: C_52  and  N_54 
ROOT
ATOM      1  O   UNL d   1      33.367 -26.196 -24.444  0.00  0.00    -0.195 OA
ENDROOT
BRANCH   1   2
ATOM      2  P   UNL d   1      32.630 -27.327 -23.260  0.00  0.00     0.401 P 
ATOM      3  O   UNL d   1      32.229 -26.876 -21.875  0.00  0.00    -0.631 OA
BRANCH   2   4
ATOM      4  O   UNL d   1      33.111 -28.879 -23.175  0.00  0.00    -0.296 OA
BRANCH   4   5
ATOM      5  C   UNL d   1      32.174 -29.900 -23.657  0.00  0.00     0.192 C 
BRANCH   5   6
ATOM      6  C   UNL d   1      31.757 -31.192 -22.790  0.00  0.00     0.009 C 
ATOM      7  C   UNL d   1      32.983 -32.022 -22.389  0.00  0.00     0.020 C 
ATOM      8  C   UNL d   1      30.784 -32.151 -23.540  0.00  0.00     0.020 C 
BRANCH   6   9
ATOM      9  C   UNL d   1      30.978 -30.746 -21.482  0.00  0.00     0.219 C 
BRANCH   9  10
ATOM     10  C   UNL d   1      31.862 -30.605 -20.226  0.00  0.00     0.247 C 
ATOM     11  N   UNL d   1      32.697 -29.508 -20.179  0.00  0.00    -0.358 N 
ATOM     12  H   UNL d   1      32.636 -28.808 -20.909  0.00  0.00     0.162 HD
ATOM     13  O   UNL d   1      31.816 -31.446 -19.327  0.00  0.00    -0.271 OA
BRANCH  11  14
ATOM     14  C   UNL d   1      33.421 -29.198 -18.956  0.00  0.00     0.132 C 
BRANCH  14  15
ATOM     15  C   UNL d   1      34.907 -28.975 -19.177  0.00  0.00     0.122 C 
BRANCH  15  16
ATOM     16  C   UNL d   1      35.418 -30.029 -20.138  0.00  0.00     0.219 C 
ATOM     17  N   UNL d   1      35.688 -29.565 -21.405  0.00  0.00    -0.360 N 
ATOM     18  H   UNL d   1      35.819 -28.570 -21.543  0.00  0.00     0.162 HD
ATOM     19  O   UNL d   1      35.509 -31.211 -19.814  0.00  0.00    -0.274 OA
BRANCH  17  20
ATOM     20  C   UNL d   1      36.178 -30.460 -22.444  0.00  0.00     0.133 C 
BRANCH  20  21
ATOM     21  C   UNL d   1      36.507 -29.756 -23.767  0.00  0.00     0.102 C 
BRANCH  21  22
ATOM     22  S   UNL d   1      36.848 -30.966 -25.090  0.00  0.00    -0.091 SA
BRANCH  22  23
ATOM     23  C   UNL d   1      35.565 -30.548 -26.235  0.00  0.00     0.186 C 
ATOM     24  O   UNL d   1      35.689 -29.620 -27.026  0.00  0.00    -0.286 OA
BRANCH  23  25
ATOM     25  C   UNL d   1      34.321 -31.408 -26.103  0.00  0.00     0.094 C 
BRANCH  25  26
ATOM     26  C   UNL d   1      34.550 -32.877 -26.499  0.00  0.00    -0.015 C 
ATOM     27  C   UNL d   1      34.595 -33.786 -25.268  0.00  0.00     0.010 C 
ATOM     28  C   UNL d   1      33.441 -33.359 -27.440  0.00  0.00     0.010 C 
ENDBRANCH  25  26
ENDBRANCH  23  25
ENDBRANCH  22  23
ENDBRANCH  21  22
ENDBRANCH  20  21
ENDBRANCH  17  20
ENDBRANCH  15  16
ENDBRANCH  14  15
ENDBRANCH  11  14
ENDBRANCH   9  10
BRANCH   9  29
ATOM     29  O   UNL d   1      30.300 -29.501 -21.696  0.00  0.00    -0.385 OA
ATOM     30  H   UNL d   1      30.859 -28.801 -21.306  0.00  0.00     0.210 HD
ENDBRANCH   9  29
ENDBRANCH   6   9
ENDBRANCH   5   6
ENDBRANCH   4   5
ENDBRANCH   2   4
BRANCH   2  31
ATOM     31  O   UNL d   1      31.200 -27.499 -23.991  0.00  0.00    -0.307 OA
ATOM     32  H   UNL d   1      31.416 -27.929 -24.854  0.00  0.00     0.222 HD
ENDBRANCH   2  31
ENDBRANCH   1   2
BRANCH   1  33
ATOM     33  P   UNL d   1      33.212 -24.687 -23.613  0.00  0.00     0.401 P 
ATOM     34  O   UNL d   1      33.343 -23.943 -24.935  0.00  0.00    -0.631 OA
BRANCH  33  35
ATOM     35  O   UNL d   1      34.597 -24.998 -22.841  0.00  0.00    -0.307 OA
ATOM     36  H   UNL d   1      34.865 -25.928 -22.836  0.00  0.00     0.222 HD
ENDBRANCH  33  35
BRANCH  33  37
ATOM     37  O   UNL d   1      33.055 -23.178 -22.782  0.00  0.00    -0.294 OA
BRANCH  37  38
ATOM     38  C   UNL d   1      31.718 -22.895 -22.209  0.00  0.00     0.215 C 
BRANCH  38  39
ATOM     39  C   UNL d   1      31.280 -21.397 -22.162  0.00  0.00     0.180 C 
ATOM     40  O   UNL d   1      30.705 -21.144 -20.854  0.00  0.00    -0.353 OA
ATOM     41  C   UNL d   1      31.087 -19.830 -20.404  0.00  0.00     0.262 C 
ATOM     42  C   UNL d   1      31.503 -19.102 -21.683  0.00  0.00     0.199 C 
ATOM     43  C   UNL d   1      32.249 -20.213 -22.443  0.00  0.00     0.197 C 
BRANCH  41  44
ATOM     44  N   UNL d   1      32.101 -19.975 -19.378  0.00  0.00    -0.294 N 
ATOM     45  C   UNL d   1      32.290 -21.098 -18.603  0.00  0.00     0.214 A 
ATOM     46  N   UNL d   1      33.247 -20.925 -17.716  0.00  0.00    -0.236 NA
ATOM     47  C   UNL d   1      33.693 -19.634 -17.927  0.00  0.00     0.144 A 
ATOM     48  C   UNL d   1      32.992 -19.048 -18.962  0.00  0.00     0.166 A 
ATOM     49  C   UNL d   1      34.692 -18.868 -17.303  0.00  0.00     0.135 A 
ATOM     50  N   UNL d   1      33.198 -17.798 -19.442  0.00  0.00    -0.222 NA
ATOM     51  C   UNL d   1      34.176 -17.163 -18.785  0.00  0.00     0.237 A 
ATOM     52  N   UNL d   1      34.931 -17.623 -17.764  0.00  0.00    -0.228 NA
BRANCH  49  53
ATOM     53  N   UNL d   1      35.463 -19.331 -16.247  0.00  0.00    -0.285 NA
ATOM     54  H   UNL d   1      36.438 -19.434 -16.491  0.00  0.00     0.125 HD
ATOM     55  H   UNL d   1      35.020 -20.083 -15.729  0.00  0.00     0.125 HD
ENDBRANCH  49  53
ENDBRANCH  41  44
BRANCH  42  56
ATOM     56  O   UNL d   1      30.360 -18.665 -22.459  0.00  0.00    -0.388 OA
ATOM     57  H   UNL d   1      29.901 -17.961 -21.958  0.00  0.00     0.210 HD
ENDBRANCH  42  56
BRANCH  43  58
ATOM     58  O   UNL d   1      32.348 -19.865 -23.827  0.00  0.00    -0.286 OA
BRANCH  58  59
ATOM     59  P   UNL d   1      31.395 -20.734 -24.981  0.00  0.00     0.391 P 
ATOM     60  O   UNL d   1      30.542 -21.511 -26.014  0.00  0.00    -0.632 OA
BRANCH  59  61
ATOM     61  O   UNL d   1      30.786 -19.247 -25.280  0.00  0.00    -0.307 OA
ATOM     62  H   UNL d   1      29.830 -19.359 -25.417  0.00  0.00     0.222 HD
ENDBRANCH  59  61
BRANCH  59  63
ATOM     63  O   UNL d   1      32.716 -20.563 -25.944  0.00  0.00    -0.307 OA
ATOM     64  H   UNL d   1      33.243 -19.791 -25.659  0.00  0.00     0.222 HD
ENDBRANCH  59  63
ENDBRANCH  58  59
ENDBRANCH  43  58
ENDBRANCH  38  39
ENDBRANCH  37  38
ENDBRANCH  33  37
ENDBRANCH   1  33
TORSDOF 29
ENDMDL
MODEL 2
REMARK VINA RESULT:      -6.5      3.857     10.186
REMARK  29 active torsions:
REMARK  status: ('A' for Active; 'I' for Inactive)
REMARK    1  A    between atoms: C_2  and  C_3 
REMARK    2  A    between atoms: C_3  and  C_5 
REMARK    3  A    between atoms: C_5  and  S_6 
REMARK    4  A    between atoms: S_6  and  C_8 
REMARK    5  A    between atoms: C_8  and  C_9 
REMARK    6  A    between atoms: C_9  and  N_10 
REMARK       I    between atoms: N_10  and  C_11 
REMARK    7  A    between atoms: C_11  and  C_12 
REMARK    8  A    between atoms: C_12  and  C_14 
REMARK    9  A    between atoms: C_14  and  N_15 
REMARK       I    between atoms: N_15  and  C_16 
REMARK   10  A    between atoms: C_16  and  C_17 
REMARK   11  A    between atoms: C_17  and  O_20 
REMARK   12  A    between atoms: C_17  and  C_19 
REMARK   13  A    between atoms: C_19  and  C_21 
REMARK   14  A    between atoms: C_21  and  O_24 
REMARK   15  A    between atoms: O_24  and  P_25 
REMARK   16  A    between atoms: P_25  and  O_28 
REMARK   17  A    between atoms: P_25  and  O_26 
REMARK   18  A    between atoms: O_26  and  P_29 
REMARK   19  A    between atoms: P_29  and  O_32 
REMARK   20  A    between atoms: P_29  and  O_30 
REMARK   21  A    between atoms: O_30  and  C_33 
REMARK   22  A    between atoms: C_34  and  C_33 
REMARK   23  A    between atoms: C_36  and  O_38 
REMARK   24  A    between atoms: C_37  and  N_40 
REMARK   25  A    between atoms: O_38  and  P_41 
REMARK   26  A    between atoms: C_39  and  O_42 
REMARK   27  A    between atoms: P_41  and  O_46 
REMARK   28  A    between atoms: P_41  and  O_47 
REMARK   29  A    between atoms: C_52  and  N_54 
ROOT
ATOM      1  O   UNL d   1      35.164 -29.329 -24.568  0.00  0.00    -0.195 OA
ENDROOT
BRANCH   1   2
ATOM      2  P   UNL d   1      35.951 -30.737 -23.779  0.00  0.00     0.401 P 
ATOM      3  O   UNL d   1      35.779 -32.141 -24.308  0.00  0.00    -0.631 OA
BRANCH   2   4
ATOM      4  O   UNL d   1      36.101 -30.814 -22.160  0.00  0.00    -0.296 OA
BRANCH   4   5
ATOM      5  C   UNL d   1      35.268 -31.793 -21.454  0.00  0.00     0.192 C 
BRANCH   5   6
ATOM      6  C   UNL d   1      35.072 -31.792 -19.856  0.00  0.00     0.009 C 
ATOM      7  C   UNL d   1      36.307 -31.237 -19.136  0.00  0.00     0.020 C 
ATOM      8  C   UNL d   1      34.800 -33.209 -19.265  0.00  0.00     0.020 C 
BRANCH   6   9
ATOM      9  C   UNL d   1      33.804 -30.925 -19.460  0.00  0.00     0.219 C 
BRANCH   9  10
ATOM     10  C   UNL d   1      33.871 -29.450 -19.905  0.00  0.00     0.247 C 
ATOM     11  N   UNL d   1      33.476 -29.177 -21.199  0.00  0.00    -0.358 N 
ATOM     12  H   UNL d   1      33.083 -29.920 -21.763  0.00  0.00     0.162 HD
ATOM     13  O   UNL d   1      34.271 -28.577 -19.132  0.00  0.00    -0.271 OA
BRANCH  11  14
ATOM     14  C   UNL d   1      33.330 -27.798 -21.638  0.00  0.00     0.132 C 
BRANCH  14  15
ATOM     15  C   UNL d   1      32.719 -27.669 -23.023  0.00  0.00     0.122 C 
BRANCH  15  16
ATOM     16  C   UNL d   1      33.191 -26.370 -23.642  0.00  0.00     0.219 C 
ATOM     17  N   UNL d   1      33.342 -25.333 -22.749  0.00  0.00    -0.360 N 
ATOM     18  H   UNL d   1      33.423 -25.547 -21.762  0.00  0.00     0.162 HD
ATOM     19  O   UNL d   1      33.353 -26.252 -24.854  0.00  0.00    -0.274 OA
BRANCH  17  20
ATOM     20  C   UNL d   1      33.781 -24.018 -23.193  0.00  0.00     0.133 C 
BRANCH  20  21
ATOM     21  C   UNL d   1      32.693 -22.939 -23.116  0.00  0.00     0.102 C 
BRANCH  21  22
ATOM     22  S   UNL d   1      32.023 -22.800 -21.424  0.00  0.00    -0.091 SA
BRANCH  22  23
ATOM     23  C   UNL d   1      32.076 -21.044 -21.209  0.00  0.00     0.186 C 
ATOM     24  O   UNL d   1      32.484 -20.303 -22.096  0.00  0.00    -0.286 OA
BRANCH  23  25
ATOM     25  C   UNL d   1      31.619 -20.579 -19.838  0.00  0.00     0.094 C 
BRANCH  25  26
ATOM     26  C   UNL d   1      32.730 -19.891 -19.026  0.00  0.00    -0.015 C 
ATOM     27  C   UNL d   1      32.406 -18.416 -18.777  0.00  0.00     0.010 C 
ATOM     28  C   UNL d   1      32.927 -20.597 -17.680  0.00  0.00     0.010 C 
ENDBRANCH  25  26
ENDBRANCH  23  25
ENDBRANCH  22  23
ENDBRANCH  21  22
ENDBRANCH  20  21
ENDBRANCH  17  20
ENDBRANCH  15  16
ENDBRANCH  14  15
ENDBRANCH  11  14
ENDBRANCH   9  10
BRANCH   9  29
ATOM     29  O   UNL d   1      32.608 -31.502 -19.998  0.00  0.00    -0.385 OA
ATOM     30  H   UNL d   1      32.841 -32.395 -20.320  0.00  0.00     0.210 HD
ENDBRANCH   9  29
ENDBRANCH   6   9
ENDBRANCH   5   6
ENDBRANCH   4   5
ENDBRANCH   2   4
BRANCH   2  31
ATOM     31  O   UNL d   1      37.472 -30.396 -24.202  0.00  0.00    -0.307 OA
ATOM     32  H   UNL d   1      37.382 -29.820 -24.999  0.00  0.00     0.222 HD
ENDBRANCH   2  31
ENDBRANCH   1   2
BRANCH   1  33
ATOM     33  P   UNL d   1      34.644 -30.026 -26.063  0.00  0.00     0.401 P 
ATOM     34  O   UNL d   1      36.007 -29.736 -26.676  0.00  0.00    -0.631 OA
BRANCH  33  35
ATOM     35  O   UNL d   1      33.546 -28.848 -26.201  0.00  0.00    -0.307 OA
ATOM     36  H   UNL d   1      33.893 -27.997 -26.504  0.00  0.00     0.222 HD
ENDBRANCH  33  35
BRANCH  33  37
ATOM     37  O   UNL d   1      34.123 -30.724 -27.558  0.00  0.00    -0.294 OA
BRANCH  37  38
ATOM     38  C   UNL d   1      33.824 -32.175 -27.521  0.00  0.00     0.215 C 
BRANCH  38  39
ATOM     39  C   UNL d   1      32.315 -32.579 -27.540  0.00  0.00     0.180 C 
ATOM     40  O   UNL d   1      32.052 -33.367 -26.352  0.00  0.00    -0.353 OA
ATOM     41  C   UNL d   1      30.749 -33.040 -25.832  0.00  0.00     0.262 C 
ATOM     42  C   UNL d   1      30.028 -32.389 -27.014  0.00  0.00     0.199 C 
ATOM     43  C   UNL d   1      31.155 -31.548 -27.639  0.00  0.00     0.197 C 
BRANCH  41  44
ATOM     44  N   UNL d   1      30.922 -32.225 -24.646  0.00  0.00    -0.294 N 
ATOM     45  C   UNL d   1      32.063 -32.176 -23.876  0.00  0.00     0.214 A 
ATOM     46  N   UNL d   1      31.915 -31.392 -22.829  0.00  0.00    -0.236 NA
ATOM     47  C   UNL d   1      30.620 -30.917 -22.927  0.00  0.00     0.144 A 
ATOM     48  C   UNL d   1      30.008 -31.422 -24.056  0.00  0.00     0.166 A 
ATOM     49  C   UNL d   1      29.873 -30.045 -22.117  0.00  0.00     0.135 A 
ATOM     50  N   UNL d   1      28.748 -31.134 -24.462  0.00  0.00    -0.222 NA
ATOM     51  C   UNL d   1      28.132 -30.290 -23.626  0.00  0.00     0.237 A 
ATOM     52  N   UNL d   1      28.619 -29.729 -22.499  0.00  0.00    -0.228 NA
BRANCH  49  53
ATOM     53  N   UNL d   1      30.363 -29.474 -20.952  0.00  0.00    -0.285 NA
ATOM     54  H   UNL d   1      29.741 -29.599 -20.164  0.00  0.00     0.125 HD
ATOM     55  H   UNL d   1      30.766 -28.554 -21.097  0.00  0.00     0.125 HD
ENDBRANCH  49  53
ENDBRANCH  41  44
BRANCH  42  56
ATOM     56  O   UNL d   1      29.562 -33.367 -27.975  0.00  0.00    -0.388 OA
ATOM     57  H   UNL d   1      28.583 -33.337 -27.993  0.00  0.00     0.210 HD
ENDBRANCH  42  56
BRANCH  43  58
ATOM     58  O   UNL d   1      30.805 -31.200 -28.982  0.00  0.00    -0.286 OA
BRANCH  58  59
ATOM     59  P   UNL d   1      30.914 -29.545 -29.476  0.00  0.00     0.391 P 
ATOM     60  O   UNL d   1      31.010 -28.064 -29.918  0.00  0.00    -0.632 OA
BRANCH  59  61
ATOM     61  O   UNL d   1      29.315 -29.561 -29.136  0.00  0.00    -0.307 OA
ATOM     62  H   UNL d   1      29.063 -30.493 -29.024  0.00  0.00     0.222 HD
ENDBRANCH  59  61
BRANCH  59  63
ATOM     63  O   UNL d   1      31.405 -29.294 -27.928  0.00  0.00    -0.307 OA
ATOM     64  H   UNL d   1      31.703 -30.135 -27.528  0.00  0.00     0.222 HD
ENDBRANCH  59  63
ENDBRANCH  58  59
ENDBRANCH  43  58
ENDBRANCH  38  39
ENDBRANCH  37  38
ENDBRANCH  33  37
ENDBRANCH   1  33
TORSDOF 29
ENDMDL
MODEL 3
REMARK VINA RESULT:      -6.5      5.017     12.059
REMARK  29 active torsions:
REMARK  status: ('A' for Active; 'I' for Inactive)
REMARK    1  A    between atoms: C_2  and  C_3 
REMARK    2  A    between atoms: C_3  and  C_5 
REMARK    3  A    between atoms: C_5  and  S_6 
REMARK    4  A    between atoms: S_6  and  C_8 
REMARK    5  A    between atoms: C_8  and  C_9 
REMARK    6  A    between atoms: C_9  and  N_10 
REMARK       I    between atoms: N_10  and  C_11 
REMARK    7  A    between atoms: C_11  and  C_12 
REMARK    8  A    between atoms: C_12  and  C_14 
REMARK    9  A    between atoms: C_14  and  N_15 
REMARK       I    between atoms: N_15  and  C_16 
REMARK   10  A    between atoms: C_16  and  C_17 
REMARK   11  A    between atoms: C_17  and  O_20 
REMARK   12  A    between atoms: C_17  and  C_19 
REMARK   13  A    between atoms: C_19  and  C_21 
REMARK   14  A    between atoms: C_21  and  O_24 
REMARK   15  A    between atoms: O_24  and  P_25 
REMARK   16  A    between atoms: P_25  and  O_28 
REMARK   17  A    between atoms: P_25  and  O_26 
REMARK   18  A    between atoms: O_26  and  P_29 
REMARK   19  A    between atoms: P_29  and  O_32 
REMARK   20  A    between atoms: P_29  and  O_30 
REMARK   21  A    between atoms: O_30  and  C_33 
REMARK   22  A    between atoms: C_34  and  C_33 
REMARK   23  A    between atoms: C_36  and  O_38 
REMARK   24  A    between atoms: C_37  and  N_40 
REMARK   25  A    between atoms: O_38  and  P_41 
REMARK   26  A    between atoms: C_39  and  O_42 
REMARK   27  A    between atoms: P_41  and  O_46 
REMARK   28  A    between atoms: P_41  and  O_47 
REMARK   29  A    between atoms: C_52  and  N_54 
ROOT
ATOM      1  O   UNL d   1      36.110 -32.413 -24.559  0.00  0.00    -0.195 OA
ENDROOT
BRANCH   1   2
ATOM      2  P   UNL d   1      35.493 -30.781 -24.137  0.00  0.00     0.401 P 
ATOM      3  O   UNL d   1      36.077 -29.529 -24.746  0.00  0.00    -0.631 OA
BRANCH   2   4
ATOM      4  O   UNL d   1      35.009 -30.436 -22.621  0.00  0.00    -0.296 OA
BRANCH   4   5
ATOM      5  C   UNL d   1      35.927 -30.775 -21.529  0.00  0.00     0.192 C 
BRANCH   5   6
ATOM      6  C   UNL d   1      35.483 -30.801 -19.982  0.00  0.00     0.009 C 
ATOM      7  C   UNL d   1      34.968 -29.433 -19.518  0.00  0.00     0.020 C 
ATOM      8  C   UNL d   1      36.637 -31.205 -19.014  0.00  0.00     0.020 C 
BRANCH   6   9
ATOM      9  C   UNL d   1      34.350 -31.889 -19.755  0.00  0.00     0.219 C 
BRANCH   9  10
ATOM     10  C   UNL d   1      32.911 -31.344 -19.849  0.00  0.00     0.247 C 
ATOM     11  N   UNL d   1      32.399 -31.168 -21.118  0.00  0.00    -0.358 N 
ATOM     12  H   UNL d   1      32.938 -31.479 -21.917  0.00  0.00     0.162 HD
ATOM     13  O   UNL d   1      32.272 -31.075 -18.830  0.00  0.00    -0.271 OA
BRANCH  11  14
ATOM     14  C   UNL d   1      30.992 -30.840 -21.295  0.00  0.00     0.132 C 
BRANCH  14  15
ATOM     15  C   UNL d   1      30.744 -29.841 -22.413  0.00  0.00     0.122 C 
BRANCH  15  16
ATOM     16  C   UNL d   1      31.763 -28.726 -22.301  0.00  0.00     0.219 C 
ATOM     17  N   UNL d   1      32.456 -28.466 -23.462  0.00  0.00    -0.360 N 
ATOM     18  H   UNL d   1      32.073 -28.790 -24.342  0.00  0.00     0.162 HD
ATOM     19  O   UNL d   1      31.988 -28.159 -21.234  0.00  0.00    -0.274 OA
BRANCH  17  20
ATOM     20  C   UNL d   1      33.476 -27.428 -23.512  0.00  0.00     0.133 C 
BRANCH  20  21
ATOM     21  C   UNL d   1      33.013 -26.134 -24.195  0.00  0.00     0.102 C 
BRANCH  21  22
ATOM     22  S   UNL d   1      33.698 -24.665 -23.356  0.00  0.00    -0.091 SA
BRANCH  22  23
ATOM     23  C   UNL d   1      32.215 -23.736 -23.090  0.00  0.00     0.186 C 
ATOM     24  O   UNL d   1      31.700 -23.080 -23.988  0.00  0.00    -0.286 OA
BRANCH  23  25
ATOM     25  C   UNL d   1      31.696 -23.805 -21.664  0.00  0.00     0.094 C 
BRANCH  25  26
ATOM     26  C   UNL d   1      31.412 -22.423 -21.052  0.00  0.00    -0.015 C 
ATOM     27  C   UNL d   1      29.946 -22.025 -21.229  0.00  0.00     0.010 C 
ATOM     28  C   UNL d   1      31.758 -22.416 -19.558  0.00  0.00     0.010 C 
ENDBRANCH  25  26
ENDBRANCH  23  25
ENDBRANCH  22  23
ENDBRANCH  21  22
ENDBRANCH  20  21
ENDBRANCH  17  20
ENDBRANCH  15  16
ENDBRANCH  14  15
ENDBRANCH  11  14
ENDBRANCH   9  10
BRANCH   9  29
ATOM     29  O   UNL d   1      34.485 -32.963 -20.694  0.00  0.00    -0.385 OA
ATOM     30  H   UNL d   1      35.330 -33.413 -20.494  0.00  0.00     0.210 HD
ENDBRANCH   9  29
ENDBRANCH   6   9
ENDBRANCH   5   6
ENDBRANCH   4   5
ENDBRANCH   2   4
BRANCH   2  31
ATOM     31  O   UNL d   1      34.066 -30.892 -24.886  0.00  0.00    -0.307 OA
ATOM     32  H   UNL d   1      33.609 -30.043 -24.672  0.00  0.00     0.222 HD
ENDBRANCH   2  31
ENDBRANCH   1   2
BRANCH   1  33
ATOM     33  P   UNL d   1      34.779 -33.056 -25.458  0.00  0.00     0.401 P 
ATOM     34  O   UNL d   1      34.931 -34.388 -24.734  0.00  0.00    -0.631 OA
BRANCH  33  35
ATOM     35  O   UNL d   1      35.646 -32.890 -26.812  0.00  0.00    -0.307 OA
ATOM     36  H   UNL d   1      35.592 -32.019 -27.229  0.00  0.00     0.222 HD
ENDBRANCH  33  35
BRANCH  33  37
ATOM     37  O   UNL d   1      33.448 -33.699 -26.356  0.00  0.00    -0.294 OA
BRANCH  37  38
ATOM     38  C   UNL d   1      32.157 -32.990 -26.188  0.00  0.00     0.215 C 
BRANCH  38  39
ATOM     39  C   UNL d   1      31.482 -32.449 -27.489  0.00  0.00     0.180 C 
ATOM     40  O   UNL d   1      31.492 -33.517 -28.470  0.00  0.00    -0.353 OA
ATOM     41  C   UNL d   1      30.265 -33.491 -29.225  0.00  0.00     0.262 C 
ATOM     42  C   UNL d   1      29.721 -32.078 -29.007  0.00  0.00     0.199 C 
ATOM     43  C   UNL d   1      30.049 -31.846 -27.521  0.00  0.00     0.197 C 
BRANCH  41  44
ATOM     44  N   UNL d   1      29.429 -34.587 -28.776  0.00  0.00    -0.294 N 
ATOM     45  C   UNL d   1      28.271 -34.452 -28.042  0.00  0.00     0.214 A 
ATOM     46  N   UNL d   1      27.752 -35.621 -27.729  0.00  0.00    -0.236 NA
ATOM     47  C   UNL d   1      28.614 -36.549 -28.283  0.00  0.00     0.144 A 
ATOM     48  C   UNL d   1      29.646 -35.912 -28.940  0.00  0.00     0.166 A 
ATOM     49  C   UNL d   1      28.605 -37.953 -28.294  0.00  0.00     0.135 A 
ATOM     50  N   UNL d   1      30.647 -36.527 -29.614  0.00  0.00    -0.222 NA
ATOM     51  C   UNL d   1      30.537 -37.859 -29.570  0.00  0.00     0.237 A 
ATOM     52  N   UNL d   1      29.581 -38.598 -28.966  0.00  0.00    -0.228 NA
BRANCH  49  53
ATOM     53  N   UNL d   1      27.633 -38.718 -27.666  0.00  0.00    -0.285 NA
ATOM     54  H   UNL d   1      26.773 -38.209 -27.514  0.00  0.00     0.125 HD
ATOM     55  H   UNL d   1      27.997 -39.275 -26.900  0.00  0.00     0.125 HD
ENDBRANCH  49  53
ENDBRANCH  41  44
BRANCH  42  56
ATOM     56  O   UNL d   1      30.413 -31.096 -29.817  0.00  0.00    -0.388 OA
ATOM     57  H   UNL d   1      31.360 -31.108 -29.571  0.00  0.00     0.210 HD
ENDBRANCH  42  56
BRANCH  43  58
ATOM     58  O   UNL d   1      30.006 -30.445 -27.234  0.00  0.00    -0.286 OA
BRANCH  58  59
ATOM     59  P   UNL d   1      31.487 -29.608 -26.914  0.00  0.00     0.391 P 
ATOM     60  O   UNL d   1      32.812 -28.859 -26.628  0.00  0.00    -0.632 OA
BRANCH  59  61
ATOM     61  O   UNL d   1      31.010 -28.714 -28.196  0.00  0.00    -0.307 OA
ATOM     62  H   UNL d   1      30.754 -29.341 -28.894  0.00  0.00     0.222 HD
ENDBRANCH  59  61
BRANCH  59  63
ATOM     63  O   UNL d   1      30.587 -28.793 -25.806  0.00  0.00    -0.307 OA
ATOM     64  H   UNL d   1      29.915 -28.244 -26.256  0.00  0.00     0.222 HD
ENDBRANCH  59  63
ENDBRANCH  58  59
ENDBRANCH  43  58
ENDBRANCH  38  39
ENDBRANCH  37  38
ENDBRANCH  33  37
ENDBRANCH   1  33
TORSDOF 29
ENDMDL
MODEL 4
REMARK VINA RESULT:      -6.4      1.899      3.301
REMARK  29 active torsions:
REMARK  status: ('A' for Active; 'I' for Inactive)
REMARK    1  A    between atoms: C_2  and  C_3 
REMARK    2  A    between atoms: C_3  and  C_5 
REMARK    3  A    between atoms: C_5  and  S_6 
REMARK    4  A    between atoms: S_6  and  C_8 
REMARK    5  A    between atoms: C_8  and  C_9 
REMARK    6  A    between atoms: C_9  and  N_10 
REMARK       I    between atoms: N_10  and  C_11 
REMARK    7  A    between atoms: C_11  and  C_12 
REMARK    8  A    between atoms: C_12  and  C_14 
REMARK    9  A    between atoms: C_14  and  N_15 
REMARK       I    between atoms: N_15  and  C_16 
REMARK   10  A    between atoms: C_16  and  C_17 
REMARK   11  A    between atoms: C_17  and  O_20 
REMARK   12  A    between atoms: C_17  and  C_19 
REMARK   13  A    between atoms: C_19  and  C_21 
REMARK   14  A    between atoms: C_21  and  O_24 
REMARK   15  A    between atoms: O_24  and  P_25 
REMARK   16  A    between atoms: P_25  and  O_28 
REMARK   17  A    between atoms: P_25  and  O_26 
REMARK   18  A    between atoms: O_26  and  P_29 
REMARK   19  A    between atoms: P_29  and  O_32 
REMARK   20  A    between atoms: P_29  and  O_30 
REMARK   21  A    between atoms: O_30  and  C_33 
REMARK   22  A    between atoms: C_34  and  C_33 
REMARK   23  A    between atoms: C_36  and  O_38 
REMARK   24  A    between atoms: C_37  and  N_40 
REMARK   25  A    between atoms: O_38  and  P_41 
REMARK   26  A    between atoms: C_39  and  O_42 
REMARK   27  A    between atoms: P_41  and  O_46 
REMARK   28  A    between atoms: P_41  and  O_47 
REMARK   29  A    between atoms: C_52  and  N_54 
ROOT
ATOM      1  O   UNL d   1      33.548 -25.387 -24.814  0.00  0.00    -0.195 OA
ENDROOT
BRANCH   1   2
ATOM      2  P   UNL d   1      33.546 -26.676 -23.565  0.00  0.00     0.401 P 
ATOM      3  O   UNL d   1      34.826 -27.178 -22.940  0.00  0.00    -0.631 OA
BRANCH   2   4
ATOM      4  O   UNL d   1      32.493 -27.915 -23.644  0.00  0.00    -0.296 OA
BRANCH   4   5
ATOM      5  C   UNL d   1      31.529 -28.047 -22.547  0.00  0.00     0.192 C 
BRANCH   5   6
ATOM      6  C   UNL d   1      31.663 -29.154 -21.385  0.00  0.00     0.009 C 
ATOM      7  C   UNL d   1      30.369 -29.278 -20.571  0.00  0.00     0.020 C 
ATOM      8  C   UNL d   1      32.810 -28.852 -20.373  0.00  0.00     0.020 C 
BRANCH   6   9
ATOM      9  C   UNL d   1      32.022 -30.567 -22.012  0.00  0.00     0.219 C 
BRANCH   9  10
ATOM     10  C   UNL d   1      33.523 -30.921 -21.977  0.00  0.00     0.247 C 
ATOM     11  N   UNL d   1      34.294 -30.445 -23.017  0.00  0.00    -0.358 N 
ATOM     12  H   UNL d   1      33.876 -29.823 -23.699  0.00  0.00     0.162 HD
ATOM     13  O   UNL d   1      33.987 -31.604 -21.062  0.00  0.00    -0.271 OA
BRANCH  11  14
ATOM     14  C   UNL d   1      35.743 -30.571 -22.964  0.00  0.00     0.132 C 
BRANCH  14  15
ATOM     15  C   UNL d   1      36.438 -30.044 -24.208  0.00  0.00     0.122 C 
BRANCH  15  16
ATOM     16  C   UNL d   1      35.540 -30.285 -25.404  0.00  0.00     0.219 C 
ATOM     17  N   UNL d   1      35.895 -31.368 -26.177  0.00  0.00    -0.360 N 
ATOM     18  H   UNL d   1      36.500 -32.076 -25.776  0.00  0.00     0.162 HD
ATOM     19  O   UNL d   1      34.617 -29.524 -25.684  0.00  0.00    -0.274 OA
BRANCH  17  20
ATOM     20  C   UNL d   1      35.134 -31.724 -27.366  0.00  0.00     0.133 C 
BRANCH  20  21
ATOM     21  C   UNL d   1      34.478 -33.109 -27.292  0.00  0.00     0.102 C 
BRANCH  21  22
ATOM     22  S   UNL d   1      32.662 -32.971 -27.175  0.00  0.00    -0.091 SA
BRANCH  22  23
ATOM     23  C   UNL d   1      32.474 -32.777 -25.426  0.00  0.00     0.186 C 
ATOM     24  O   UNL d   1      33.403 -32.986 -24.655  0.00  0.00    -0.286 OA
BRANCH  23  25
ATOM     25  C   UNL d   1      31.071 -32.381 -25.000  0.00  0.00     0.094 C 
BRANCH  25  26
ATOM     26  C   UNL d   1      29.980 -32.862 -25.971  0.00  0.00    -0.015 C 
ATOM     27  C   UNL d   1      29.047 -33.874 -25.304  0.00  0.00     0.010 C 
ATOM     28  C   UNL d   1      29.154 -31.676 -26.481  0.00  0.00     0.010 C 
ENDBRANCH  25  26
ENDBRANCH  23  25
ENDBRANCH  22  23
ENDBRANCH  21  22
ENDBRANCH  20  21
ENDBRANCH  17  20
ENDBRANCH  15  16
ENDBRANCH  14  15
ENDBRANCH  11  14
ENDBRANCH   9  10
BRANCH   9  29
ATOM     29  O   UNL d   1      31.298 -31.612 -21.351  0.00  0.00    -0.385 OA
ATOM     30  H   UNL d   1      31.293 -31.399 -20.398  0.00  0.00     0.210 HD
ENDBRANCH   9  29
ENDBRANCH   6   9
ENDBRANCH   5   6
ENDBRANCH   4   5
ENDBRANCH   2   4
BRANCH   2  31
ATOM     31  O   UNL d   1      32.896 -25.811 -22.366  0.00  0.00    -0.307 OA
ATOM     32  H   UNL d   1      33.625 -25.211 -22.074  0.00  0.00     0.222 HD
ENDBRANCH   2  31
ENDBRANCH   1   2
BRANCH   1  33
ATOM     33  P   UNL d   1      33.259 -23.980 -23.848  0.00  0.00     0.401 P 
ATOM     34  O   UNL d   1      33.088 -23.146 -25.111  0.00  0.00    -0.631 OA
BRANCH  33  35
ATOM     35  O   UNL d   1      34.768 -24.093 -23.280  0.00  0.00    -0.307 OA
ATOM     36  H   UNL d   1      34.880 -24.693 -22.530  0.00  0.00     0.222 HD
ENDBRANCH  33  35
BRANCH  33  37
ATOM     37  O   UNL d   1      32.970 -22.574 -22.883  0.00  0.00    -0.294 OA
BRANCH  37  38
ATOM     38  C   UNL d   1      32.561 -22.830 -21.482  0.00  0.00     0.215 C 
BRANCH  38  39
ATOM     39  C   UNL d   1      31.283 -22.085 -20.980  0.00  0.00     0.180 C 
ATOM     40  O   UNL d   1      31.459 -21.806 -19.567  0.00  0.00    -0.353 OA
ATOM     41  C   UNL d   1      30.908 -20.512 -19.257  0.00  0.00     0.262 C 
ATOM     42  C   UNL d   1      29.957 -20.222 -20.420  0.00  0.00     0.199 C 
ATOM     43  C   UNL d   1      30.755 -20.768 -21.617  0.00  0.00     0.197 C 
BRANCH  41  44
ATOM     44  N   UNL d   1      32.005 -19.583 -19.066  0.00  0.00    -0.294 N 
ATOM     45  C   UNL d   1      32.223 -18.448 -19.816  0.00  0.00     0.214 A 
ATOM     46  N   UNL d   1      33.325 -17.826 -19.453  0.00  0.00    -0.236 NA
ATOM     47  C   UNL d   1      33.841 -18.596 -18.427  0.00  0.00     0.144 A 
ATOM     48  C   UNL d   1      33.021 -19.677 -18.179  0.00  0.00     0.166 A 
ATOM     49  C   UNL d   1      34.993 -18.458 -17.635  0.00  0.00     0.135 A 
ATOM     50  N   UNL d   1      33.221 -20.612 -17.220  0.00  0.00    -0.222 NA
ATOM     51  C   UNL d   1      34.338 -20.380 -16.519  0.00  0.00     0.237 A 
ATOM     52  N   UNL d   1      35.218 -19.366 -16.663  0.00  0.00    -0.228 NA
BRANCH  49  53
ATOM     53  N   UNL d   1      35.907 -17.426 -17.785  0.00  0.00    -0.285 NA
ATOM     54  H   UNL d   1      36.056 -17.173 -18.752  0.00  0.00     0.125 HD
ATOM     55  H   UNL d   1      36.722 -17.525 -17.188  0.00  0.00     0.125 HD
ENDBRANCH  49  53
ENDBRANCH  41  44
BRANCH  42  56
ATOM     56  O   UNL d   1      28.708 -20.945 -20.297  0.00  0.00    -0.388 OA
ATOM     57  H   UNL d   1      28.457 -21.277 -21.183  0.00  0.00     0.210 HD
ENDBRANCH  42  56
BRANCH  43  58
ATOM     58  O   UNL d   1      29.875 -20.976 -22.725  0.00  0.00    -0.286 OA
BRANCH  58  59
ATOM     59  P   UNL d   1      30.338 -20.390 -24.286  0.00  0.00     0.391 P 
ATOM     60  O   UNL d   1      30.753 -19.865 -25.683  0.00  0.00    -0.632 OA
BRANCH  59  61
ATOM     61  O   UNL d   1      30.425 -21.986 -24.625  0.00  0.00    -0.307 OA
ATOM     62  H   UNL d   1      31.364 -22.189 -24.774  0.00  0.00     0.222 HD
ENDBRANCH  59  61
BRANCH  59  63
ATOM     63  O   UNL d   1      28.717 -20.261 -24.530  0.00  0.00    -0.307 OA
ATOM     64  H   UNL d   1      28.243 -20.327 -23.677  0.00  0.00     0.222 HD
ENDBRANCH  59  63
ENDBRANCH  58  59
ENDBRANCH  43  58
ENDBRANCH  38  39
ENDBRANCH  37  38
ENDBRANCH  33  37
ENDBRANCH   1  33
TORSDOF 29
ENDMDL
MODEL 5
REMARK VINA RESULT:      -6.4      5.870      7.954
REMARK  29 active torsions:
REMARK  status: ('A' for Active; 'I' for Inactive)
REMARK    1  A    between atoms: C_2  and  C_3 
REMARK    2  A    between atoms: C_3  and  C_5 
REMARK    3  A    between atoms: C_5  and  S_6 
REMARK    4  A    between atoms: S_6  and  C_8 
REMARK    5  A    between atoms: C_8  and  C_9 
REMARK    6  A    between atoms: C_9  and  N_10 
REMARK       I    between atoms: N_10  and  C_11 
REMARK    7  A    between atoms: C_11  and  C_12 
REMARK    8  A    between atoms: C_12  and  C_14 
REMARK    9  A    between atoms: C_14  and  N_15 
REMARK       I    between atoms: N_15  and  C_16 
REMARK   10  A    between atoms: C_16  and  C_17 
REMARK   11  A    between atoms: C_17  and  O_20 
REMARK   12  A    between atoms: C_17  and  C_19 
REMARK   13  A    between atoms: C_19  and  C_21 
REMARK   14  A    between atoms: C_21  and  O_24 
REMARK   15  A    between atoms: O_24  and  P_25 
REMARK   16  A    between atoms: P_25  and  O_28 
REMARK   17  A    between atoms: P_25  and  O_26 
REMARK   18  A    between atoms: O_26  and  P_29 
REMARK   19  A    between atoms: P_29  and  O_32 
REMARK   20  A    between atoms: P_29  and  O_30 
REMARK   21  A    between atoms: O_30  and  C_33 
REMARK   22  A    between atoms: C_34  and  C_33 
REMARK   23  A    between atoms: C_36  and  O_38 
REMARK   24  A    between atoms: C_37  and  N_40 
REMARK   25  A    between atoms: O_38  and  P_41 
REMARK   26  A    between atoms: C_39  and  O_42 
REMARK   27  A    between atoms: P_41  and  O_46 
REMARK   28  A    between atoms: P_41  and  O_47 
REMARK   29  A    between atoms: C_52  and  N_54 
ROOT
ATOM      1  O   UNL d   1      33.536 -30.524 -18.457  0.00  0.00    -0.195 OA
ENDROOT
BRANCH   1   2
ATOM      2  P   UNL d   1      34.159 -30.996 -20.073  0.00  0.00     0.401 P 
ATOM      3  O   UNL d   1      33.840 -32.339 -20.686  0.00  0.00    -0.631 OA
BRANCH   2   4
ATOM      4  O   UNL d   1      35.647 -30.551 -20.559  0.00  0.00    -0.296 OA
BRANCH   4   5
ATOM      5  C   UNL d   1      36.034 -30.889 -21.933  0.00  0.00     0.192 C 
BRANCH   5   6
ATOM      6  C   UNL d   1      36.231 -29.784 -23.089  0.00  0.00     0.009 C 
ATOM      7  C   UNL d   1      37.662 -29.793 -23.640  0.00  0.00     0.020 C 
ATOM      8  C   UNL d   1      35.936 -28.330 -22.612  0.00  0.00     0.020 C 
BRANCH   6   9
ATOM      9  C   UNL d   1      35.213 -30.048 -24.277  0.00  0.00     0.219 C 
BRANCH   9  10
ATOM     10  C   UNL d   1      34.207 -31.188 -24.018  0.00  0.00     0.247 C 
ATOM     11  N   UNL d   1      32.890 -30.819 -23.839  0.00  0.00    -0.358 N 
ATOM     12  H   UNL d   1      32.624 -29.850 -23.968  0.00  0.00     0.162 HD
ATOM     13  O   UNL d   1      34.584 -32.360 -23.968  0.00  0.00    -0.271 OA
BRANCH  11  14
ATOM     14  C   UNL d   1      31.852 -31.838 -23.778  0.00  0.00     0.132 C 
BRANCH  14  15
ATOM     15  C   UNL d   1      30.761 -31.525 -22.769  0.00  0.00     0.122 C 
BRANCH  15  16
ATOM     16  C   UNL d   1      29.625 -30.824 -23.485  0.00  0.00     0.219 C 
ATOM     17  N   UNL d   1      29.579 -31.049 -24.842  0.00  0.00    -0.360 N 
ATOM     18  H   UNL d   1      30.075 -31.848 -25.222  0.00  0.00     0.162 HD
ATOM     19  O   UNL d   1      28.860 -30.065 -22.896  0.00  0.00    -0.274 OA
BRANCH  17  20
ATOM     20  C   UNL d   1      28.550 -30.437 -25.671  0.00  0.00     0.133 C 
BRANCH  20  21
ATOM     21  C   UNL d   1      28.425 -31.060 -27.068  0.00  0.00     0.102 C 
BRANCH  21  22
ATOM     22  S   UNL d   1      29.668 -32.373 -27.316  0.00  0.00    -0.091 SA
BRANCH  22  23
ATOM     23  C   UNL d   1      30.935 -31.453 -28.141  0.00  0.00     0.186 C 
ATOM     24  O   UNL d   1      30.789 -30.268 -28.417  0.00  0.00    -0.286 OA
BRANCH  23  25
ATOM     25  C   UNL d   1      32.159 -32.278 -28.496  0.00  0.00     0.094 C 
BRANCH  25  26
ATOM     26  C   UNL d   1      33.187 -32.365 -27.355  0.00  0.00    -0.015 C 
ATOM     27  C   UNL d   1      33.416 -33.814 -26.920  0.00  0.00     0.010 C 
ATOM     28  C   UNL d   1      34.524 -31.753 -27.788  0.00  0.00     0.010 C 
ENDBRANCH  25  26
ENDBRANCH  23  25
ENDBRANCH  22  23
ENDBRANCH  21  22
ENDBRANCH  20  21
ENDBRANCH  17  20
ENDBRANCH  15  16
ENDBRANCH  14  15
ENDBRANCH  11  14
ENDBRANCH   9  10
BRANCH   9  29
ATOM     29  O   UNL d   1      34.474 -28.858 -24.583  0.00  0.00    -0.385 OA
ATOM     30  H   UNL d   1      33.706 -28.835 -23.980  0.00  0.00     0.210 HD
ENDBRANCH   9  29
ENDBRANCH   6   9
ENDBRANCH   5   6
ENDBRANCH   4   5
ENDBRANCH   2   4
BRANCH   2  31
ATOM     31  O   UNL d   1      33.248 -29.994 -20.954  0.00  0.00    -0.307 OA
ATOM     32  H   UNL d   1      32.509 -29.739 -20.350  0.00  0.00     0.222 HD
ENDBRANCH   2  31
ENDBRANCH   1   2
BRANCH   1  33
ATOM     33  P   UNL d   1      31.949 -29.963 -18.857  0.00  0.00     0.401 P 
ATOM     34  O   UNL d   1      31.745 -29.509 -17.417  0.00  0.00    -0.631 OA
BRANCH  33  35
ATOM     35  O   UNL d   1      31.520 -31.487 -19.180  0.00  0.00    -0.307 OA
ATOM     36  H   UNL d   1      30.669 -31.762 -18.809  0.00  0.00     0.222 HD
ENDBRANCH  33  35
BRANCH  33  37
ATOM     37  O   UNL d   1      30.363 -29.402 -19.256  0.00  0.00    -0.294 OA
BRANCH  37  38
ATOM     38  C   UNL d   1      29.971 -28.103 -18.659  0.00  0.00     0.215 C 
BRANCH  38  39
ATOM     39  C   UNL d   1      29.071 -27.174 -19.535  0.00  0.00     0.180 C 
ATOM     40  O   UNL d   1      29.943 -26.272 -20.264  0.00  0.00    -0.353 OA
ATOM     41  C   UNL d   1      29.423 -26.064 -21.591  0.00  0.00     0.262 C 
ATOM     42  C   UNL d   1      27.953 -26.475 -21.486  0.00  0.00     0.199 C 
ATOM     43  C   UNL d   1      28.042 -27.709 -20.571  0.00  0.00     0.197 C 
BRANCH  41  44
ATOM     44  N   UNL d   1      30.243 -26.810 -22.525  0.00  0.00    -0.294 N 
ATOM     45  C   UNL d   1      31.369 -27.530 -22.192  0.00  0.00     0.214 A 
ATOM     46  N   UNL d   1      31.943 -28.060 -23.253  0.00  0.00    -0.236 NA
ATOM     47  C   UNL d   1      31.153 -27.661 -24.315  0.00  0.00     0.144 A 
ATOM     48  C   UNL d   1      30.095 -26.897 -23.866  0.00  0.00     0.166 A 
ATOM     49  C   UNL d   1      31.241 -27.902 -25.696  0.00  0.00     0.135 A 
ATOM     50  N   UNL d   1      29.119 -26.371 -24.645  0.00  0.00    -0.222 NA
ATOM     51  C   UNL d   1      29.294 -26.669 -25.937  0.00  0.00     0.237 A 
ATOM     52  N   UNL d   1      30.280 -27.402 -26.499  0.00  0.00    -0.228 NA
BRANCH  49  53
ATOM     53  N   UNL d   1      32.257 -28.644 -26.281  0.00  0.00    -0.285 NA
ATOM     54  H   UNL d   1      33.178 -28.302 -26.042  0.00  0.00     0.125 HD
ATOM     55  H   UNL d   1      32.074 -28.875 -27.252  0.00  0.00     0.125 HD
ENDBRANCH  49  53
ENDBRANCH  41  44
BRANCH  42  56
ATOM     56  O   UNL d   1      27.145 -25.455 -20.850  0.00  0.00    -0.388 OA
ATOM     57  H   UNL d   1      27.528 -24.580 -21.068  0.00  0.00     0.210 HD
ENDBRANCH  42  56
BRANCH  43  58
ATOM     58  O   UNL d   1      26.754 -27.986 -20.013  0.00  0.00    -0.286 OA
BRANCH  58  59
ATOM     59  P   UNL d   1      26.071 -29.562 -20.219  0.00  0.00     0.391 P 
ATOM     60  O   UNL d   1      25.460 -30.973 -20.405  0.00  0.00    -0.632 OA
BRANCH  59  61
ATOM     61  O   UNL d   1      26.018 -29.101 -21.786  0.00  0.00    -0.307 OA
ATOM     62  H   UNL d   1      26.906 -29.251 -22.152  0.00  0.00     0.222 HD
ENDBRANCH  59  61
BRANCH  59  63
ATOM     63  O   UNL d   1      27.640 -30.051 -20.249  0.00  0.00    -0.307 OA
ATOM     64  H   UNL d   1      27.723 -30.942 -19.856  0.00  0.00     0.222 HD
ENDBRANCH  59  63
ENDBRANCH  58  59
ENDBRANCH  43  58
ENDBRANCH  38  39
ENDBRANCH  37  38
ENDBRANCH  33  37
ENDBRANCH   1  33
TORSDOF 29
ENDMDL
MODEL 6
REMARK VINA RESULT:      -6.3      4.663     12.083
REMARK  29 active torsions:
REMARK  status: ('A' for Active; 'I' for Inactive)
REMARK    1  A    between atoms: C_2  and  C_3 
REMARK    2  A    between atoms: C_3  and  C_5 
REMARK    3  A    between atoms: C_5  and  S_6 
REMARK    4  A    between atoms: S_6  and  C_8 
REMARK    5  A    between atoms: C_8  and  C_9 
REMARK    6  A    between atoms: C_9  and  N_10 
REMARK       I    between atoms: N_10  and  C_11 
REMARK    7  A    between atoms: C_11  and  C_12 
REMARK    8  A    between atoms: C_12  and  C_14 
REMARK    9  A    between atoms: C_14  and  N_15 
REMARK       I    between atoms: N_15  and  C_16 
REMARK   10  A    between atoms: C_16  and  C_17 
REMARK   11  A    between atoms: C_17  and  O_20 
REMARK   12  A    between atoms: C_17  and  C_19 
REMARK   13  A    between atoms: C_19  and  C_21 
REMARK   14  A    between atoms: C_21  and  O_24 
REMARK   15  A    between atoms: O_24  and  P_25 
REMARK   16  A    between atoms: P_25  and  O_28 
REMARK   17  A    between atoms: P_25  and  O_26 
REMARK   18  A    between atoms: O_26  and  P_29 
REMARK   19  A    between atoms: P_29  and  O_32 
REMARK   20  A    between atoms: P_29  and  O_30 
REMARK   21  A    between atoms: O_30  and  C_33 
REMARK   22  A    between atoms: C_34  and  C_33 
REMARK   23  A    between atoms: C_36  and  O_38 
REMARK   24  A    between atoms: C_37  and  N_40 
REMARK   25  A    between atoms: O_38  and  P_41 
REMARK   26  A    between atoms: C_39  and  O_42 
REMARK   27  A    between atoms: P_41  and  O_46 
REMARK   28  A    between atoms: P_41  and  O_47 
REMARK   29  A    between atoms: C_52  and  N_54 
ROOT
ATOM      1  O   UNL d   1      32.718 -27.325 -22.206  0.00  0.00    -0.195 OA
ENDROOT
BRANCH   1   2
ATOM      2  P   UNL d   1      31.714 -26.988 -23.655  0.00  0.00     0.401 P 
ATOM      3  O   UNL d   1      31.285 -28.088 -24.597  0.00  0.00    -0.631 OA
BRANCH   2   4
ATOM      4  O   UNL d   1      31.924 -25.625 -24.520  0.00  0.00    -0.296 OA
BRANCH   4   5
ATOM      5  C   UNL d   1      31.138 -24.452 -24.125  0.00  0.00     0.192 C 
BRANCH   5   6
ATOM      6  C   UNL d   1      31.802 -23.036 -23.739  0.00  0.00     0.009 C 
ATOM      7  C   UNL d   1      30.737 -21.954 -23.521  0.00  0.00     0.020 C 
ATOM      8  C   UNL d   1      32.783 -22.497 -24.824  0.00  0.00     0.020 C 
BRANCH   6   9
ATOM      9  C   UNL d   1      32.675 -23.182 -22.423  0.00  0.00     0.219 C 
BRANCH   9  10
ATOM     10  C   UNL d   1      31.860 -23.428 -21.137  0.00  0.00     0.247 C 
ATOM     11  N   UNL d   1      31.762 -22.369 -20.257  0.00  0.00    -0.358 N 
ATOM     12  H   UNL d   1      32.141 -21.468 -20.521  0.00  0.00     0.162 HD
ATOM     13  O   UNL d   1      31.341 -24.524 -20.921  0.00  0.00    -0.271 OA
BRANCH  11  14
ATOM     14  C   UNL d   1      30.861 -22.454 -19.117  0.00  0.00     0.132 C 
BRANCH  14  15
ATOM     15  C   UNL d   1      29.431 -22.065 -19.451  0.00  0.00     0.122 C 
BRANCH  15  16
ATOM     16  C   UNL d   1      28.891 -21.197 -18.334  0.00  0.00     0.219 C 
ATOM     17  N   UNL d   1      29.292 -21.574 -17.072  0.00  0.00    -0.360 N 
ATOM     18  H   UNL d   1      30.105 -22.172 -16.976  0.00  0.00     0.162 HD
ATOM     19  O   UNL d   1      28.105 -20.278 -18.550  0.00  0.00    -0.274 OA
BRANCH  17  20
ATOM     20  C   UNL d   1      28.850 -20.842 -15.893  0.00  0.00     0.133 C 
BRANCH  20  21
ATOM     21  C   UNL d   1      28.648 -21.724 -14.654  0.00  0.00     0.102 C 
BRANCH  21  22
ATOM     22  S   UNL d   1      27.360 -21.035 -13.559  0.00  0.00    -0.091 SA
BRANCH  22  23
ATOM     23  C   UNL d   1      28.257 -20.950 -12.036  0.00  0.00     0.186 C 
ATOM     24  O   UNL d   1      29.304 -21.566 -11.873  0.00  0.00    -0.286 OA
BRANCH  23  25
ATOM     25  C   UNL d   1      27.585 -20.095 -10.975  0.00  0.00     0.094 C 
BRANCH  25  26
ATOM     26  C   UNL d   1      26.090 -19.854 -11.243  0.00  0.00    -0.015 C 
ATOM     27  C   UNL d   1      25.217 -20.825 -10.446  0.00  0.00     0.010 C 
ATOM     28  C   UNL d   1      25.704 -18.416 -10.880  0.00  0.00     0.010 C 
ENDBRANCH  25  26
ENDBRANCH  23  25
ENDBRANCH  22  23
ENDBRANCH  21  22
ENDBRANCH  20  21
ENDBRANCH  17  20
ENDBRANCH  15  16
ENDBRANCH  14  15
ENDBRANCH  11  14
ENDBRANCH   9  10
BRANCH   9  29
ATOM     29  O   UNL d   1      33.627 -24.245 -22.561  0.00  0.00    -0.385 OA
ATOM     30  H   UNL d   1      33.278 -24.853 -23.242  0.00  0.00     0.210 HD
ENDBRANCH   9  29
ENDBRANCH   6   9
ENDBRANCH   5   6
ENDBRANCH   4   5
ENDBRANCH   2   4
BRANCH   2  31
ATOM     31  O   UNL d   1      30.337 -26.642 -22.884  0.00  0.00    -0.307 OA
ATOM     32  H   UNL d   1      30.399 -25.674 -22.696  0.00  0.00     0.222 HD
ENDBRANCH   2  31
ENDBRANCH   1   2
BRANCH   1  33
ATOM     33  P   UNL d   1      34.107 -28.068 -22.921  0.00  0.00     0.401 P 
ATOM     34  O   UNL d   1      34.675 -28.347 -21.536  0.00  0.00    -0.631 OA
BRANCH  33  35
ATOM     35  O   UNL d   1      34.505 -26.641 -23.569  0.00  0.00    -0.307 OA
ATOM     36  H   UNL d   1      33.879 -26.298 -24.222  0.00  0.00     0.222 HD
ENDBRANCH  33  35
BRANCH  33  37
ATOM     37  O   UNL d   1      35.496 -28.811 -23.637  0.00  0.00    -0.294 OA
BRANCH  37  38
ATOM     38  C   UNL d   1      36.053 -29.972 -22.904  0.00  0.00     0.215 C 
BRANCH  38  39
ATOM     39  C   UNL d   1      35.610 -31.387 -23.395  0.00  0.00     0.180 C 
ATOM     40  O   UNL d   1      34.764 -31.967 -22.369  0.00  0.00    -0.353 OA
ATOM     41  C   UNL d   1      33.693 -32.706 -22.986  0.00  0.00     0.262 C 
ATOM     42  C   UNL d   1      34.189 -32.967 -24.409  0.00  0.00     0.199 C 
ATOM     43  C   UNL d   1      34.880 -31.634 -24.746  0.00  0.00     0.197 C 
BRANCH  41  44
ATOM     44  N   UNL d   1      32.472 -31.936 -22.853  0.00  0.00    -0.294 N 
ATOM     45  C   UNL d   1      31.492 -31.831 -23.816  0.00  0.00     0.214 A 
ATOM     46  N   UNL d   1      30.523 -31.021 -23.443  0.00  0.00    -0.236 NA
ATOM     47  C   UNL d   1      30.897 -30.583 -22.186  0.00  0.00     0.144 A 
ATOM     48  C   UNL d   1      32.096 -31.156 -21.814  0.00  0.00     0.166 A 
ATOM     49  C   UNL d   1      30.284 -29.709 -21.273  0.00  0.00     0.135 A 
ATOM     50  N   UNL d   1      32.728 -30.962 -20.632  0.00  0.00    -0.222 NA
ATOM     51  C   UNL d   1      32.055 -30.123 -19.837  0.00  0.00     0.237 A 
ATOM     52  N   UNL d   1      30.881 -29.501 -20.081  0.00  0.00    -0.228 NA
BRANCH  49  53
ATOM     53  N   UNL d   1      29.084 -29.059 -21.522  0.00  0.00    -0.285 NA
ATOM     54  H   UNL d   1      28.765 -29.180 -22.473  0.00  0.00     0.125 HD
ATOM     55  H   UNL d   1      29.046 -28.127 -21.123  0.00  0.00     0.125 HD
ENDBRANCH  49  53
ENDBRANCH  41  44
BRANCH  42  56
ATOM     56  O   UNL d   1      35.158 -34.044 -24.460  0.00  0.00    -0.388 OA
ATOM     57  H   UNL d   1      35.151 -34.420 -25.363  0.00  0.00     0.210 HD
ENDBRANCH  42  56
BRANCH  43  58
ATOM     58  O   UNL d   1      35.765 -31.819 -25.854  0.00  0.00    -0.286 OA
BRANCH  58  59
ATOM     59  P   UNL d   1      36.402 -30.427 -26.661  0.00  0.00     0.391 P 
ATOM     60  O   UNL d   1      36.971 -29.182 -27.384  0.00  0.00    -0.632 OA
BRANCH  59  61
ATOM     61  O   UNL d   1      35.936 -31.251 -27.994  0.00  0.00    -0.307 OA
ATOM     62  H   UNL d   1      36.742 -31.637 -28.379  0.00  0.00     0.222 HD
ENDBRANCH  59  61
BRANCH  59  63
ATOM     63  O   UNL d   1      34.923 -29.781 -26.347  0.00  0.00    -0.307 OA
ATOM     64  H   UNL d   1      34.362 -29.819 -27.147  0.00  0.00     0.222 HD
ENDBRANCH  59  63
ENDBRANCH  58  59
ENDBRANCH  43  58
ENDBRANCH  38  39
ENDBRANCH  37  38
ENDBRANCH  33  37
ENDBRANCH   1  33
TORSDOF 29
ENDMDL
MODEL 7
REMARK VINA RESULT:      -6.2      1.891      3.110
REMARK  29 active torsions:
REMARK  status: ('A' for Active; 'I' for Inactive)
REMARK    1  A    between atoms: C_2  and  C_3 
REMARK    2  A    between atoms: C_3  and  C_5 
REMARK    3  A    between atoms: C_5  and  S_6 
REMARK    4  A    between atoms: S_6  and  C_8 
REMARK    5  A    between atoms: C_8  and  C_9 
REMARK    6  A    between atoms: C_9  and  N_10 
REMARK       I    between atoms: N_10  and  C_11 
REMARK    7  A    between atoms: C_11  and  C_12 
REMARK    8  A    between atoms: C_12  and  C_14 
REMARK    9  A    between atoms: C_14  and  N_15 
REMARK       I    between atoms: N_15  and  C_16 
REMARK   10  A    between atoms: C_16  and  C_17 
REMARK   11  A    between atoms: C_17  and  O_20 
REMARK   12  A    between atoms: C_17  and  C_19 
REMARK   13  A    between atoms: C_19  and  C_21 
REMARK   14  A    between atoms: C_21  and  O_24 
REMARK   15  A    between atoms: O_24  and  P_25 
REMARK   16  A    between atoms: P_25  and  O_28 
REMARK   17  A    between atoms: P_25  and  O_26 
REMARK   18  A    between atoms: O_26  and  P_29 
REMARK   19  A    between atoms: P_29  and  O_32 
REMARK   20  A    between atoms: P_29  and  O_30 
REMARK   21  A    between atoms: O_30  and  C_33 
REMARK   22  A    between atoms: C_34  and  C_33 
REMARK   23  A    between atoms: C_36  and  O_38 
REMARK   24  A    between atoms: C_37  and  N_40 
REMARK   25  A    between atoms: O_38  and  P_41 
REMARK   26  A    between atoms: C_39  and  O_42 
REMARK   27  A    between atoms: P_41  and  O_46 
REMARK   28  A    between atoms: P_41  and  O_47 
REMARK   29  A    between atoms: C_52  and  N_54 
ROOT
ATOM      1  O   UNL d   1      31.396 -25.681 -23.608  0.00  0.00    -0.195 OA
ENDROOT
BRANCH   1   2
ATOM      2  P   UNL d   1      31.210 -27.173 -22.627  0.00  0.00     0.401 P 
ATOM      3  O   UNL d   1      30.078 -28.144 -22.867  0.00  0.00    -0.631 OA
BRANCH   2   4
ATOM      4  O   UNL d   1      31.563 -27.179 -21.038  0.00  0.00    -0.296 OA
BRANCH   4   5
ATOM      5  C   UNL d   1      32.410 -28.269 -20.543  0.00  0.00     0.192 C 
BRANCH   5   6
ATOM      6  C   UNL d   1      31.911 -29.347 -19.455  0.00  0.00     0.009 C 
ATOM      7  C   UNL d   1      30.539 -28.974 -18.879  0.00  0.00     0.020 C 
ATOM      8  C   UNL d   1      32.884 -29.504 -18.248  0.00  0.00     0.020 C 
BRANCH   6   9
ATOM      9  C   UNL d   1      31.825 -30.789 -20.112  0.00  0.00     0.219 C 
BRANCH   9  10
ATOM     10  C   UNL d   1      32.694 -30.971 -21.373  0.00  0.00     0.247 C 
ATOM     11  N   UNL d   1      34.031 -31.242 -21.167  0.00  0.00    -0.358 N 
ATOM     12  H   UNL d   1      34.366 -31.394 -20.224  0.00  0.00     0.162 HD
ATOM     13  O   UNL d   1      32.201 -30.866 -22.497  0.00  0.00    -0.271 OA
BRANCH  11  14
ATOM     14  C   UNL d   1      34.878 -31.612 -22.291  0.00  0.00     0.132 C 
BRANCH  14  15
ATOM     15  C   UNL d   1      35.934 -30.570 -22.617  0.00  0.00     0.122 C 
BRANCH  15  16
ATOM     16  C   UNL d   1      35.693 -30.061 -24.023  0.00  0.00     0.219 C 
ATOM     17  N   UNL d   1      34.388 -30.158 -24.451  0.00  0.00    -0.360 N 
ATOM     18  H   UNL d   1      33.655 -30.268 -23.759  0.00  0.00     0.162 HD
ATOM     19  O   UNL d   1      36.612 -29.661 -24.734  0.00  0.00    -0.274 OA
BRANCH  17  20
ATOM     20  C   UNL d   1      33.999 -29.717 -25.782  0.00  0.00     0.133 C 
BRANCH  20  21
ATOM     21  C   UNL d   1      34.095 -30.811 -26.853  0.00  0.00     0.102 C 
BRANCH  21  22
ATOM     22  S   UNL d   1      32.446 -31.240 -27.507  0.00  0.00    -0.091 SA
BRANCH  22  23
ATOM     23  C   UNL d   1      32.222 -32.834 -26.773  0.00  0.00     0.186 C 
ATOM     24  O   UNL d   1      32.638 -33.853 -27.314  0.00  0.00    -0.286 OA
BRANCH  23  25
ATOM     25  C   UNL d   1      31.447 -32.805 -25.468  0.00  0.00     0.094 C 
BRANCH  25  26
ATOM     26  C   UNL d   1      29.942 -32.552 -25.659  0.00  0.00    -0.015 C 
ATOM     27  C   UNL d   1      29.132 -33.837 -25.473  0.00  0.00     0.010 C 
ATOM     28  C   UNL d   1      29.444 -31.496 -24.665  0.00  0.00     0.010 C 
ENDBRANCH  25  26
ENDBRANCH  23  25
ENDBRANCH  22  23
ENDBRANCH  21  22
ENDBRANCH  20  21
ENDBRANCH  17  20
ENDBRANCH  15  16
ENDBRANCH  14  15
ENDBRANCH  11  14
ENDBRANCH   9  10
BRANCH   9  29
ATOM     29  O   UNL d   1      32.193 -31.799 -19.163  0.00  0.00    -0.385 OA
ATOM     30  H   UNL d   1      31.369 -32.247 -18.889  0.00  0.00     0.210 HD
ENDBRANCH   9  29
ENDBRANCH   6   9
ENDBRANCH   5   6
ENDBRANCH   4   5
ENDBRANCH   2   4
BRANCH   2  31
ATOM     31  O   UNL d   1      32.481 -27.977 -23.217  0.00  0.00    -0.307 OA
ATOM     32  H   UNL d   1      32.799 -27.417 -23.966  0.00  0.00     0.222 HD
ENDBRANCH   2  31
ENDBRANCH   1   2
BRANCH   1  33
ATOM     33  P   UNL d   1      31.364 -24.462 -22.380  0.00  0.00     0.401 P 
ATOM     34  O   UNL d   1      31.040 -23.409 -23.432  0.00  0.00    -0.631 OA
BRANCH  33  35
ATOM     35  O   UNL d   1      32.936 -24.727 -22.113  0.00  0.00    -0.307 OA
ATOM     36  H   UNL d   1      33.538 -24.256 -22.706  0.00  0.00     0.222 HD
ENDBRANCH  33  35
BRANCH  33  37
ATOM     37  O   UNL d   1      31.331 -23.244 -21.153  0.00  0.00    -0.294 OA
BRANCH  37  38
ATOM     38  C   UNL d   1      29.984 -22.791 -20.732  0.00  0.00     0.215 C 
BRANCH  38  39
ATOM     39  C   UNL d   1      29.751 -21.248 -20.678  0.00  0.00     0.180 C 
ATOM     40  O   UNL d   1      29.700 -20.857 -19.282  0.00  0.00    -0.353 OA
ATOM     41  C   UNL d   1      30.351 -19.583 -19.112  0.00  0.00     0.262 C 
ATOM     42  C   UNL d   1      30.367 -18.981 -20.519  0.00  0.00     0.199 C 
ATOM     43  C   UNL d   1      30.679 -20.217 -21.381  0.00  0.00     0.197 C 
BRANCH  41  44
ATOM     44  N   UNL d   1      31.638 -19.808 -18.485  0.00  0.00    -0.294 N 
ATOM     45  C   UNL d   1      32.048 -20.995 -17.919  0.00  0.00     0.214 A 
ATOM     46  N   UNL d   1      33.243 -20.891 -17.376  0.00  0.00    -0.236 NA
ATOM     47  C   UNL d   1      33.618 -19.579 -17.599  0.00  0.00     0.144 A 
ATOM     48  C   UNL d   1      32.631 -18.910 -18.294  0.00  0.00     0.166 A 
ATOM     49  C   UNL d   1      34.777 -18.860 -17.262  0.00  0.00     0.135 A 
ATOM     50  N   UNL d   1      32.692 -17.619 -18.698  0.00  0.00    -0.222 NA
ATOM     51  C   UNL d   1      33.839 -17.033 -18.335  0.00  0.00     0.237 A 
ATOM     52  N   UNL d   1      34.875 -17.575 -17.658  0.00  0.00    -0.228 NA
BRANCH  49  53
ATOM     53  N   UNL d   1      35.839 -19.407 -16.557  0.00  0.00    -0.285 NA
ATOM     54  H   UNL d   1      36.335 -18.722 -16.004  0.00  0.00     0.125 HD
ATOM     55  H   UNL d   1      36.387 -20.061 -17.106  0.00  0.00     0.125 HD
ENDBRANCH  49  53
ENDBRANCH  41  44
BRANCH  42  56
ATOM     56  O   UNL d   1      29.078 -18.438 -20.895  0.00  0.00    -0.388 OA
ATOM     57  H   UNL d   1      29.228 -17.604 -21.386  0.00  0.00     0.210 HD
ENDBRANCH  42  56
BRANCH  43  58
ATOM     58  O   UNL d   1      30.323 -19.955 -22.742  0.00  0.00    -0.286 OA
BRANCH  58  59
ATOM     59  P   UNL d   1      31.580 -19.747 -23.913  0.00  0.00     0.391 P 
ATOM     60  O   UNL d   1      32.706 -19.562 -24.960  0.00  0.00    -0.632 OA
BRANCH  59  61
ATOM     61  O   UNL d   1      32.325 -20.880 -23.000  0.00  0.00    -0.307 OA
ATOM     62  H   UNL d   1      33.168 -20.493 -22.707  0.00  0.00     0.222 HD
ENDBRANCH  59  61
BRANCH  59  63
ATOM     63  O   UNL d   1      30.695 -20.811 -24.799  0.00  0.00    -0.307 OA
ATOM     64  H   UNL d   1      31.200 -21.095 -25.586  0.00  0.00     0.222 HD
ENDBRANCH  59  63
ENDBRANCH  58  59
ENDBRANCH  43  58
ENDBRANCH  38  39
ENDBRANCH  37  38
ENDBRANCH  33  37
ENDBRANCH   1  33
TORSDOF 29
ENDMDL
MODEL 8
REMARK VINA RESULT:      -6.1      3.905     10.911
REMARK  29 active torsions:
REMARK  status: ('A' for Active; 'I' for Inactive)
REMARK    1  A    between atoms: C_2  and  C_3 
REMARK    2  A    between atoms: C_3  and  C_5 
REMARK    3  A    between atoms: C_5  and  S_6 
REMARK    4  A    between atoms: S_6  and  C_8 
REMARK    5  A    between atoms: C_8  and  C_9 
REMARK    6  A    between atoms: C_9  and  N_10 
REMARK       I    between atoms: N_10  and  C_11 
REMARK    7  A    between atoms: C_11  and  C_12 
REMARK    8  A    between atoms: C_12  and  C_14 
REMARK    9  A    between atoms: C_14  and  N_15 
REMARK       I    between atoms: N_15  and  C_16 
REMARK   10  A    between atoms: C_16  and  C_17 
REMARK   11  A    between atoms: C_17  and  O_20 
REMARK   12  A    between atoms: C_17  and  C_19 
REMARK   13  A    between atoms: C_19  and  C_21 
REMARK   14  A    between atoms: C_21  and  O_24 
REMARK   15  A    between atoms: O_24  and  P_25 
REMARK   16  A    between atoms: P_25  and  O_28 
REMARK   17  A    between atoms: P_25  and  O_26 
REMARK   18  A    between atoms: O_26  and  P_29 
REMARK   19  A    between atoms: P_29  and  O_32 
REMARK   20  A    between atoms: P_29  and  O_30 
REMARK   21  A    between atoms: O_30  and  C_33 
REMARK   22  A    between atoms: C_34  and  C_33 
REMARK   23  A    between atoms: C_36  and  O_38 
REMARK   24  A    between atoms: C_37  and  N_40 
REMARK   25  A    between atoms: O_38  and  P_41 
REMARK   26  A    between atoms: C_39  and  O_42 
REMARK   27  A    between atoms: P_41  and  O_46 
REMARK   28  A    between atoms: P_41  and  O_47 
REMARK   29  A    between atoms: C_52  and  N_54 
ROOT
ATOM      1  O   UNL d   1      32.622 -27.458 -22.670  0.00  0.00    -0.195 OA
ENDROOT
BRANCH   1   2
ATOM      2  P   UNL d   1      32.592 -26.954 -24.392  0.00  0.00     0.401 P 
ATOM      3  O   UNL d   1      33.122 -27.846 -25.490  0.00  0.00    -0.631 OA
BRANCH   2   4
ATOM      4  O   UNL d   1      32.862 -25.405 -24.815  0.00  0.00    -0.296 OA
BRANCH   4   5
ATOM      5  C   UNL d   1      31.690 -24.533 -24.950  0.00  0.00     0.192 C 
BRANCH   5   6
ATOM      6  C   UNL d   1      31.225 -23.499 -23.805  0.00  0.00     0.009 C 
ATOM      7  C   UNL d   1      30.040 -24.045 -23.000  0.00  0.00     0.020 C 
ATOM      8  C   UNL d   1      30.795 -22.110 -24.365  0.00  0.00     0.020 C 
BRANCH   6   9
ATOM      9  C   UNL d   1      32.430 -23.196 -22.819  0.00  0.00     0.219 C 
BRANCH   9  10
ATOM     10  C   UNL d   1      32.155 -22.074 -21.797  0.00  0.00     0.247 C 
ATOM     11  N   UNL d   1      32.870 -20.905 -21.958  0.00  0.00    -0.358 N 
ATOM     12  H   UNL d   1      33.466 -20.796 -22.769  0.00  0.00     0.162 HD
ATOM     13  O   UNL d   1      31.343 -22.238 -20.886  0.00  0.00    -0.271 OA
BRANCH  11  14
ATOM     14  C   UNL d   1      32.538 -19.735 -21.158  0.00  0.00     0.132 C 
BRANCH  14  15
ATOM     15  C   UNL d   1      31.735 -18.695 -21.920  0.00  0.00     0.122 C 
BRANCH  15  16
ATOM     16  C   UNL d   1      32.345 -18.524 -23.296  0.00  0.00     0.219 C 
ATOM     17  N   UNL d   1      31.454 -18.653 -24.337  0.00  0.00    -0.360 N 
ATOM     18  H   UNL d   1      30.463 -18.556 -24.145  0.00  0.00     0.162 HD
ATOM     19  O   UNL d   1      33.552 -18.354 -23.453  0.00  0.00    -0.274 OA
BRANCH  17  20
ATOM     20  C   UNL d   1      31.889 -18.523 -25.720  0.00  0.00     0.133 C 
BRANCH  20  21
ATOM     21  C   UNL d   1      32.189 -17.079 -26.145  0.00  0.00     0.102 C 
BRANCH  21  22
ATOM     22  S   UNL d   1      33.025 -17.030 -27.766  0.00  0.00    -0.091 SA
BRANCH  22  23
ATOM     23  C   UNL d   1      34.295 -18.233 -27.500  0.00  0.00     0.186 C 
ATOM     24  O   UNL d   1      35.184 -18.055 -26.675  0.00  0.00    -0.286 OA
BRANCH  23  25
ATOM     25  C   UNL d   1      34.190 -19.447 -28.406  0.00  0.00     0.094 C 
BRANCH  25  26
ATOM     26  C   UNL d   1      34.000 -19.086 -29.889  0.00  0.00    -0.015 C 
ATOM     27  C   UNL d   1      35.220 -19.486 -30.722  0.00  0.00     0.010 C 
ATOM     28  C   UNL d   1      32.756 -19.779 -30.455  0.00  0.00     0.010 C 
ENDBRANCH  25  26
ENDBRANCH  23  25
ENDBRANCH  22  23
ENDBRANCH  21  22
ENDBRANCH  20  21
ENDBRANCH  17  20
ENDBRANCH  15  16
ENDBRANCH  14  15
ENDBRANCH  11  14
ENDBRANCH   9  10
BRANCH   9  29
ATOM     29  O   UNL d   1      32.804 -24.378 -22.098  0.00  0.00    -0.385 OA
ATOM     30  H   UNL d   1      32.230 -24.424 -21.308  0.00  0.00     0.210 HD
ENDBRANCH   9  29
ENDBRANCH   6   9
ENDBRANCH   5   6
ENDBRANCH   4   5
ENDBRANCH   2   4
BRANCH   2  31
ATOM     31  O   UNL d   1      30.995 -27.049 -24.615  0.00  0.00    -0.307 OA
ATOM     32  H   UNL d   1      30.609 -26.695 -23.777  0.00  0.00     0.222 HD
ENDBRANCH   2  31
ENDBRANCH   1   2
BRANCH   1  33
ATOM     33  P   UNL d   1      34.165 -28.234 -22.571  0.00  0.00     0.401 P 
ATOM     34  O   UNL d   1      33.934 -28.511 -21.091  0.00  0.00    -0.631 OA
BRANCH  33  35
ATOM     35  O   UNL d   1      34.869 -26.821 -22.919  0.00  0.00    -0.307 OA
ATOM     36  H   UNL d   1      35.726 -26.888 -23.362  0.00  0.00     0.222 HD
ENDBRANCH  33  35
BRANCH  33  37
ATOM     37  O   UNL d   1      35.708 -29.010 -22.472  0.00  0.00    -0.294 OA
BRANCH  37  38
ATOM     38  C   UNL d   1      35.721 -30.332 -21.803  0.00  0.00     0.215 C 
BRANCH  38  39
ATOM     39  C   UNL d   1      35.327 -31.563 -22.680  0.00  0.00     0.180 C 
ATOM     40  O   UNL d   1      34.102 -32.119 -22.138  0.00  0.00    -0.353 OA
ATOM     41  C   UNL d   1      33.254 -32.562 -23.215  0.00  0.00     0.262 C 
ATOM     42  C   UNL d   1      34.205 -32.708 -24.404  0.00  0.00     0.199 C 
ATOM     43  C   UNL d   1      35.121 -31.486 -24.220  0.00  0.00     0.197 C 
BRANCH  41  44
ATOM     44  N   UNL d   1      32.169 -31.612 -23.362  0.00  0.00    -0.294 N 
ATOM     45  C   UNL d   1      31.684 -31.140 -24.562  0.00  0.00     0.214 A 
ATOM     46  N   UNL d   1      30.734 -30.246 -24.389  0.00  0.00    -0.236 NA
ATOM     47  C   UNL d   1      30.602 -30.134 -23.017  0.00  0.00     0.144 A 
ATOM     48  C   UNL d   1      31.481 -30.986 -22.380  0.00  0.00     0.166 A 
ATOM     49  C   UNL d   1      29.760 -29.348 -22.213  0.00  0.00     0.135 A 
ATOM     50  N   UNL d   1      31.590 -31.143 -21.039  0.00  0.00    -0.222 NA
ATOM     51  C   UNL d   1      30.738 -30.357 -20.371  0.00  0.00     0.237 A 
ATOM     52  N   UNL d   1      29.835 -29.488 -20.874  0.00  0.00    -0.228 NA
BRANCH  49  53
ATOM     53  N   UNL d   1      28.839 -28.445 -22.723  0.00  0.00    -0.285 NA
ATOM     54  H   UNL d   1      28.308 -27.979 -22.000  0.00  0.00     0.125 HD
ATOM     55  H   UNL d   1      28.334 -28.802 -23.528  0.00  0.00     0.125 HD
ENDBRANCH  49  53
ENDBRANCH  41  44
BRANCH  42  56
ATOM     56  O   UNL d   1      34.991 -33.922 -24.328  0.00  0.00    -0.388 OA
ATOM     57  H   UNL d   1      35.416 -34.068 -25.198  0.00  0.00     0.210 HD
ENDBRANCH  42  56
BRANCH  43  58
ATOM     58  O   UNL d   1      36.324 -31.671 -24.972  0.00  0.00    -0.286 OA
BRANCH  58  59
ATOM     59  P   UNL d   1      36.796 -30.458 -26.112  0.00  0.00     0.391 P 
ATOM     60  O   UNL d   1      37.218 -29.373 -27.133  0.00  0.00    -0.632 OA
BRANCH  59  61
ATOM     61  O   UNL d   1      36.022 -31.445 -27.160  0.00  0.00    -0.307 OA
ATOM     62  H   UNL d   1      36.379 -32.338 -27.018  0.00  0.00     0.222 HD
ENDBRANCH  59  61
BRANCH  59  63
ATOM     63  O   UNL d   1      35.443 -29.685 -25.589  0.00  0.00    -0.307 OA
ATOM     64  H   UNL d   1      34.821 -30.326 -25.192  0.00  0.00     0.222 HD
ENDBRANCH  59  63
ENDBRANCH  58  59
ENDBRANCH  43  58
ENDBRANCH  38  39
ENDBRANCH  37  38
ENDBRANCH  33  37
ENDBRANCH   1  33
TORSDOF 29
ENDMDL
MODEL 9
REMARK VINA RESULT:      -6.0      3.318      5.108
REMARK  29 active torsions:
REMARK  status: ('A' for Active; 'I' for Inactive)
REMARK    1  A    between atoms: C_2  and  C_3 
REMARK    2  A    between atoms: C_3  and  C_5 
REMARK    3  A    between atoms: C_5  and  S_6 
REMARK    4  A    between atoms: S_6  and  C_8 
REMARK    5  A    between atoms: C_8  and  C_9 
REMARK    6  A    between atoms: C_9  and  N_10 
REMARK       I    between atoms: N_10  and  C_11 
REMARK    7  A    between atoms: C_11  and  C_12 
REMARK    8  A    between atoms: C_12  and  C_14 
REMARK    9  A    between atoms: C_14  and  N_15 
REMARK       I    between atoms: N_15  and  C_16 
REMARK   10  A    between atoms: C_16  and  C_17 
REMARK   11  A    between atoms: C_17  and  O_20 
REMARK   12  A    between atoms: C_17  and  C_19 
REMARK   13  A    between atoms: C_19  and  C_21 
REMARK   14  A    between atoms: C_21  and  O_24 
REMARK   15  A    between atoms: O_24  and  P_25 
REMARK   16  A    between atoms: P_25  and  O_28 
REMARK   17  A    between atoms: P_25  and  O_26 
REMARK   18  A    between atoms: O_26  and  P_29 
REMARK   19  A    between atoms: P_29  and  O_32 
REMARK   20  A    between atoms: P_29  and  O_30 
REMARK   21  A    between atoms: O_30  and  C_33 
REMARK   22  A    between atoms: C_34  and  C_33 
REMARK   23  A    between atoms: C_36  and  O_38 
REMARK   24  A    between atoms: C_37  and  N_40 
REMARK   25  A    between atoms: O_38  and  P_41 
REMARK   26  A    between atoms: C_39  and  O_42 
REMARK   27  A    between atoms: P_41  and  O_46 
REMARK   28  A    between atoms: P_41  and  O_47 
REMARK   29  A    between atoms: C_52  and  N_54 
ROOT
ATOM      1  O   UNL d   1      31.190 -25.419 -23.374  0.00  0.00    -0.195 OA
ENDROOT
BRANCH   1   2
ATOM      2  P   UNL d   1      32.765 -26.105 -23.896  0.00  0.00     0.401 P 
ATOM      3  O   UNL d   1      33.350 -25.804 -25.256  0.00  0.00    -0.631 OA
BRANCH   2   4
ATOM      4  O   UNL d   1      33.203 -27.614 -23.472  0.00  0.00    -0.296 OA
BRANCH   4   5
ATOM      5  C   UNL d   1      32.796 -28.082 -22.143  0.00  0.00     0.192 C 
BRANCH   5   6
ATOM      6  C   UNL d   1      33.649 -29.146 -21.286  0.00  0.00     0.009 C 
ATOM      7  C   UNL d   1      33.354 -30.587 -21.720  0.00  0.00     0.020 C 
ATOM      8  C   UNL d   1      33.374 -29.067 -19.753  0.00  0.00     0.020 C 
BRANCH   6   9
ATOM      9  C   UNL d   1      35.201 -28.860 -21.446  0.00  0.00     0.219 C 
BRANCH   9  10
ATOM     10  C   UNL d   1      35.917 -29.765 -22.469  0.00  0.00     0.247 C 
ATOM     11  N   UNL d   1      35.893 -29.349 -23.785  0.00  0.00    -0.358 N 
ATOM     12  H   UNL d   1      35.494 -28.446 -24.011  0.00  0.00     0.162 HD
ATOM     13  O   UNL d   1      36.468 -30.807 -22.111  0.00  0.00    -0.271 OA
BRANCH  11  14
ATOM     14  C   UNL d   1      36.699 -30.039 -24.780  0.00  0.00     0.132 C 
BRANCH  14  15
ATOM     15  C   UNL d   1      36.054 -30.077 -26.155  0.00  0.00     0.122 C 
BRANCH  15  16
ATOM     16  C   UNL d   1      34.551 -30.163 -25.983  0.00  0.00     0.219 C 
ATOM     17  N   UNL d   1      33.843 -29.184 -26.643  0.00  0.00    -0.360 N 
ATOM     18  H   UNL d   1      34.294 -28.680 -27.398  0.00  0.00     0.162 HD
ATOM     19  O   UNL d   1      34.030 -31.003 -25.253  0.00  0.00    -0.274 OA
BRANCH  17  20
ATOM     20  C   UNL d   1      32.390 -29.128 -26.568  0.00  0.00     0.133 C 
BRANCH  20  21
ATOM     21  C   UNL d   1      31.704 -28.942 -27.928  0.00  0.00     0.102 C 
BRANCH  21  22
ATOM     22  S   UNL d   1      30.452 -30.238 -28.215  0.00  0.00    -0.091 SA
BRANCH  22  23
ATOM     23  C   UNL d   1      31.498 -31.584 -28.691  0.00  0.00     0.186 C 
ATOM     24  O   UNL d   1      32.715 -31.527 -28.560  0.00  0.00    -0.286 OA
BRANCH  23  25
ATOM     25  C   UNL d   1      30.750 -32.758 -29.298  0.00  0.00     0.094 C 
BRANCH  25  26
ATOM     26  C   UNL d   1      30.738 -34.005 -28.399  0.00  0.00    -0.015 C 
ATOM     27  C   UNL d   1      29.724 -33.863 -27.262  0.00  0.00     0.010 C 
ATOM     28  C   UNL d   1      30.402 -35.256 -29.219  0.00  0.00     0.010 C 
ENDBRANCH  25  26
ENDBRANCH  23  25
ENDBRANCH  22  23
ENDBRANCH  21  22
ENDBRANCH  20  21
ENDBRANCH  17  20
ENDBRANCH  15  16
ENDBRANCH  14  15
ENDBRANCH  11  14
ENDBRANCH   9  10
BRANCH   9  29
ATOM     29  O   UNL d   1      35.429 -27.495 -21.818  0.00  0.00    -0.385 OA
ATOM     30  H   UNL d   1      34.675 -26.976 -21.474  0.00  0.00     0.210 HD
ENDBRANCH   9  29
ENDBRANCH   6   9
ENDBRANCH   5   6
ENDBRANCH   4   5
ENDBRANCH   2   4
BRANCH   2  31
ATOM     31  O   UNL d   1      33.712 -25.235 -22.917  0.00  0.00    -0.307 OA
ATOM     32  H   UNL d   1      33.827 -25.805 -22.119  0.00  0.00     0.222 HD
ENDBRANCH   2  31
ENDBRANCH   1   2
BRANCH   1  33
ATOM     33  P   UNL d   1      31.707 -24.163 -22.302  0.00  0.00     0.401 P 
ATOM     34  O   UNL d   1      31.333 -25.027 -21.105  0.00  0.00    -0.631 OA
BRANCH  33  35
ATOM     35  O   UNL d   1      30.530 -23.219 -22.882  0.00  0.00    -0.307 OA
ATOM     36  H   UNL d   1      30.829 -22.479 -23.428  0.00  0.00     0.222 HD
ENDBRANCH  33  35
BRANCH  33  37
ATOM     37  O   UNL d   1      32.224 -22.907 -21.231  0.00  0.00    -0.294 OA
BRANCH  37  38
ATOM     38  C   UNL d   1      32.923 -21.766 -21.868  0.00  0.00     0.215 C 
BRANCH  38  39
ATOM     39  C   UNL d   1      32.422 -20.337 -21.484  0.00  0.00     0.180 C 
ATOM     40  O   UNL d   1      30.974 -20.379 -21.412  0.00  0.00    -0.353 OA
ATOM     41  C   UNL d   1      30.519 -19.556 -20.322  0.00  0.00     0.262 C 
ATOM     42  C   UNL d   1      31.699 -18.625 -20.038  0.00  0.00     0.199 C 
ATOM     43  C   UNL d   1      32.894 -19.579 -20.211  0.00  0.00     0.197 C 
BRANCH  41  44
ATOM     44  N   UNL d   1      30.099 -20.423 -19.239  0.00  0.00    -0.294 N 
ATOM     45  C   UNL d   1      30.366 -20.211 -17.904  0.00  0.00     0.214 A 
ATOM     46  N   UNL d   1      29.910 -21.191 -17.152  0.00  0.00    -0.236 NA
ATOM     47  C   UNL d   1      29.326 -22.074 -18.041  0.00  0.00     0.144 A 
ATOM     48  C   UNL d   1      29.433 -21.596 -19.331  0.00  0.00     0.166 A 
ATOM     49  C   UNL d   1      28.671 -23.302 -17.855  0.00  0.00     0.135 A 
ATOM     50  N   UNL d   1      28.941 -22.203 -20.438  0.00  0.00    -0.222 NA
ATOM     51  C   UNL d   1      28.329 -23.357 -20.146  0.00  0.00     0.237 A 
ATOM     52  N   UNL d   1      28.159 -23.929 -18.935  0.00  0.00    -0.228 NA
BRANCH  49  53
ATOM     53  N   UNL d   1      28.503 -23.901 -16.615  0.00  0.00    -0.285 NA
ATOM     54  H   UNL d   1      28.116 -24.832 -16.680  0.00  0.00     0.125 HD
ATOM     55  H   UNL d   1      28.115 -23.273 -15.919  0.00  0.00     0.125 HD
ENDBRANCH  49  53
ENDBRANCH  41  44
BRANCH  42  56
ATOM     56  O   UNL d   1      31.791 -17.550 -21.005  0.00  0.00    -0.388 OA
ATOM     57  H   UNL d   1      31.476 -16.727 -20.580  0.00  0.00     0.210 HD
ENDBRANCH  42  56
BRANCH  43  58
ATOM     58  O   UNL d   1      34.091 -18.818 -20.403  0.00  0.00    -0.286 OA
BRANCH  58  59
ATOM     59  P   UNL d   1      35.034 -18.374 -19.022  0.00  0.00     0.391 P 
ATOM     60  O   UNL d   1      35.878 -17.977 -17.785  0.00  0.00    -0.632 OA
BRANCH  59  61
ATOM     61  O   UNL d   1      34.423 -19.766 -18.423  0.00  0.00    -0.307 OA
ATOM     62  H   UNL d   1      33.645 -19.985 -18.964  0.00  0.00     0.222 HD
ENDBRANCH  59  61
BRANCH  59  63
ATOM     63  O   UNL d   1      36.266 -19.082 -19.849  0.00  0.00    -0.307 OA
ATOM     64  H   UNL d   1      35.996 -19.969 -20.162  0.00  0.00     0.222 HD
ENDBRANCH  59  63
ENDBRANCH  58  59
ENDBRANCH  43  58
ENDBRANCH  38  39
ENDBRANCH  37  38
ENDBRANCH  33  37
ENDBRANCH   1  33
TORSDOF 29
ENDMDL
