MODEL 1
REMARK VINA RESULT:      -6.4      0.000      0.000
REMARK  7 active torsions:
REMARK  status: ('A' for Active; 'I' for Inactive)
REMARK    1  A    between atoms: C_2  and  O_1 
REMARK    2  A    between atoms: CA_3  and  C_2 
REMARK    3  A    between atoms: N_6  and  CA_3 
REMARK    4  A    between atoms: CA_3  and  C_5 
REMARK    5  A    between atoms: C_5  and  C_7 
REMARK    6  A    between atoms: C_7  and  C_8 
REMARK    7  A    between atoms: C_11  and  N_13 
ROOT
ATOM      1  C   UNL d   1      25.523  -0.493 -12.481  0.00  0.00     0.164 C 
ATOM      2  O   UNL d   1      24.612  -0.955 -13.175  0.00  0.00    -0.292 OA
ENDROOT
BRANCH   1   3
ATOM      3  C   UNL d   1      25.563  -0.722 -10.975  0.00  0.00     0.130 C 
BRANCH   3   4
ATOM      4  CA  UNL d   1      26.054  -2.111 -10.550  0.00  0.00     0.321 C 
BRANCH   4   5
ATOM      5  N   UNL d   1      25.954  -3.136 -11.607  0.00  0.00     0.093 N 
ATOM      6  H1  UNL d   1      25.012  -3.157 -11.999  0.00  0.00     0.314 HD
ATOM      7  H2  UNL d   1      26.113  -4.057 -11.192  0.00  0.00     0.314 HD
ENDBRANCH   4   5
BRANCH   4   8
ATOM      8  C   UNL d   1      25.408  -2.579  -9.236  0.00  0.00     0.174 C 
ATOM      9  OXT UNL d   1      26.058  -2.955  -8.268  0.00  0.00    -0.648 OA
BRANCH   8  10
ATOM     10  O   UNL d   1      24.057  -2.566  -9.223  0.00  0.00    -0.775 OA
ATOM     11  H   UNL d   1      23.665  -2.114 -10.009  0.00  0.00     0.167 HD
ENDBRANCH   8  10
ENDBRANCH   4   8
ENDBRANCH   3   4
ENDBRANCH   1   3
BRANCH   1  12
ATOM     12  C   UNL d   1      26.604   0.338 -13.109  0.00  0.00     0.031 A 
ATOM     13  C   UNL d   1      26.497   1.739 -13.111  0.00  0.00     0.017 A 
ATOM     14  C   UNL d   1      27.480   2.525 -13.712  0.00  0.00     0.001 A 
ATOM     15  C   UNL d   1      28.587   1.925 -14.298  0.00  0.00     0.002 A 
ATOM     16  C   UNL d   1      28.707   0.534 -14.293  0.00  0.00     0.024 A 
ATOM     17  C   UNL d   1      27.703  -0.280 -13.748  0.00  0.00     0.019 A 
BRANCH  17  18
ATOM     18  N   UNL d   1      27.955  -1.663 -13.653  0.00  0.00    -0.302 NA
ATOM     19  H   UNL d   1      28.699  -1.907 -13.006  0.00  0.00     0.124 HD
ATOM     20  H   UNL d   1      28.094  -2.090 -14.572  0.00  0.00     0.124 HD
ENDBRANCH  17  18
ENDBRANCH   1  12
TORSDOF 7
ENDMDL
MODEL 2
REMARK VINA RESULT:      -6.2     51.956     53.267
REMARK  7 active torsions:
REMARK  status: ('A' for Active; 'I' for Inactive)
REMARK    1  A    between atoms: C_2  and  O_1 
REMARK    2  A    between atoms: CA_3  and  C_2 
REMARK    3  A    between atoms: N_6  and  CA_3 
REMARK    4  A    between atoms: CA_3  and  C_5 
REMARK    5  A    between atoms: C_5  and  C_7 
REMARK    6  A    between atoms: C_7  and  C_8 
REMARK    7  A    between atoms: C_11  and  N_13 
ROOT
ATOM      1  C   UNL d   1      -3.452   0.943  33.082  0.00  0.00     0.164 C 
ATOM      2  O   UNL d   1      -4.069   0.786  34.141  0.00  0.00    -0.292 OA
ENDROOT
BRANCH   1   3
ATOM      3  C   UNL d   1      -2.062   0.354  32.884  0.00  0.00     0.130 C 
BRANCH   3   4
ATOM      4  CA  UNL d   1      -0.925   1.164  33.518  0.00  0.00     0.321 C 
BRANCH   4   5
ATOM      5  N   UNL d   1      -1.381   2.286  34.361  0.00  0.00     0.093 N 
ATOM      6  H1  UNL d   1      -1.175   3.180  33.911  0.00  0.00     0.314 HD
ATOM      7  H2  UNL d   1      -0.852   2.278  35.237  0.00  0.00     0.314 HD
ENDBRANCH   4   5
BRANCH   4   8
ATOM      8  C   UNL d   1       0.118   1.613  32.482  0.00  0.00     0.174 C 
ATOM      9  OXT UNL d   1       0.518   0.891  31.578  0.00  0.00    -0.648 OA
BRANCH   8  10
ATOM     10  O   UNL d   1       0.585   2.870  32.645  0.00  0.00    -0.775 OA
ATOM     11  H   UNL d   1       1.020   3.233  31.836  0.00  0.00     0.167 HD
ENDBRANCH   8  10
ENDBRANCH   4   8
ENDBRANCH   3   4
ENDBRANCH   1   3
BRANCH   1  12
ATOM     12  C   UNL d   1      -4.055   1.752  31.970  0.00  0.00     0.031 A 
ATOM     13  C   UNL d   1      -3.697   3.101  31.814  0.00  0.00     0.017 A 
ATOM     14  C   UNL d   1      -4.266   3.874  30.802  0.00  0.00     0.001 A 
ATOM     15  C   UNL d   1      -5.180   3.305  29.924  0.00  0.00     0.002 A 
ATOM     16  C   UNL d   1      -5.535   1.961  30.065  0.00  0.00     0.024 A 
ATOM     17  C   UNL d   1      -5.022   1.181  31.112  0.00  0.00     0.019 A 
BRANCH  17  18
ATOM     18  N   UNL d   1      -5.314  -0.197  31.110  0.00  0.00    -0.302 NA
ATOM     19  H   UNL d   1      -4.543  -0.787  31.408  0.00  0.00     0.124 HD
ATOM     20  H   UNL d   1      -5.705  -0.503  30.215  0.00  0.00     0.124 HD
ENDBRANCH  17  18
ENDBRANCH   1  12
TORSDOF 7
ENDMDL
MODEL 3
REMARK VINA RESULT:      -6.1     31.713     32.773
REMARK  7 active torsions:
REMARK  status: ('A' for Active; 'I' for Inactive)
REMARK    1  A    between atoms: C_2  and  O_1 
REMARK    2  A    between atoms: CA_3  and  C_2 
REMARK    3  A    between atoms: N_6  and  CA_3 
REMARK    4  A    between atoms: CA_3  and  C_5 
REMARK    5  A    between atoms: C_5  and  C_7 
REMARK    6  A    between atoms: C_7  and  C_8 
REMARK    7  A    between atoms: C_11  and  N_13 
ROOT
ATOM      1  C   UNL d   1      -5.694  -1.841 -20.775  0.00  0.00     0.164 C 
ATOM      2  O   UNL d   1      -6.653  -2.461 -21.247  0.00  0.00    -0.292 OA
ENDROOT
BRANCH   1   3
ATOM      3  C   UNL d   1      -4.554  -2.566 -20.072  0.00  0.00     0.130 C 
BRANCH   3   4
ATOM      4  CA  UNL d   1      -4.891  -3.083 -18.669  0.00  0.00     0.321 C 
BRANCH   4   5
ATOM      5  N   UNL d   1      -6.332  -3.071 -18.351  0.00  0.00     0.093 N 
ATOM      6  H1  UNL d   1      -6.579  -3.876 -17.773  0.00  0.00     0.314 HD
ATOM      7  H2  UNL d   1      -6.864  -3.168 -19.220  0.00  0.00     0.314 HD
ENDBRANCH   4   5
BRANCH   4   8
ATOM      8  C   UNL d   1      -4.059  -2.391 -17.577  0.00  0.00     0.174 C 
ATOM      9  OXT UNL d   1      -3.028  -1.773 -17.812  0.00  0.00    -0.648 OA
BRANCH   8  10
ATOM     10  O   UNL d   1      -4.535  -2.525 -16.320  0.00  0.00    -0.775 OA
ATOM     11  H   UNL d   1      -5.305  -3.142 -16.259  0.00  0.00     0.167 HD
ENDBRANCH   8  10
ENDBRANCH   4   8
ENDBRANCH   3   4
ENDBRANCH   1   3
BRANCH   1  12
ATOM     12  C   UNL d   1      -5.648  -0.343 -20.861  0.00  0.00     0.031 A 
ATOM     13  C   UNL d   1      -5.585   0.422 -19.684  0.00  0.00     0.017 A 
ATOM     14  C   UNL d   1      -5.566   1.816 -19.745  0.00  0.00     0.001 A 
ATOM     15  C   UNL d   1      -5.590   2.458 -20.976  0.00  0.00     0.002 A 
ATOM     16  C   UNL d   1      -5.643   1.706 -22.151  0.00  0.00     0.024 A 
ATOM     17  C   UNL d   1      -5.724   0.305 -22.114  0.00  0.00     0.019 A 
BRANCH  17  18
ATOM     18  N   UNL d   1      -5.634  -0.392 -23.335  0.00  0.00    -0.302 NA
ATOM     19  H   UNL d   1      -5.054   0.064 -24.033  0.00  0.00     0.124 HD
ATOM     20  H   UNL d   1      -6.557  -0.635 -23.705  0.00  0.00     0.124 HD
ENDBRANCH  17  18
ENDBRANCH   1  12
TORSDOF 7
ENDMDL
MODEL 4
REMARK VINA RESULT:      -5.8     31.268     32.514
REMARK  7 active torsions:
REMARK  status: ('A' for Active; 'I' for Inactive)
REMARK    1  A    between atoms: C_2  and  O_1 
REMARK    2  A    between atoms: CA_3  and  C_2 
REMARK    3  A    between atoms: N_6  and  CA_3 
REMARK    4  A    between atoms: CA_3  and  C_5 
REMARK    5  A    between atoms: C_5  and  C_7 
REMARK    6  A    between atoms: C_7  and  C_8 
REMARK    7  A    between atoms: C_11  and  N_13 
ROOT
ATOM      1  C   UNL d   1      -5.579  -2.200 -20.377  0.00  0.00     0.164 C 
ATOM      2  O   UNL d   1      -6.114  -2.977 -19.580  0.00  0.00    -0.292 OA
ENDROOT
BRANCH   1   3
ATOM      3  C   UNL d   1      -4.467  -2.666 -21.307  0.00  0.00     0.130 C 
BRANCH   3   4
ATOM      4  CA  UNL d   1      -3.169  -3.077 -20.602  0.00  0.00     0.321 C 
BRANCH   4   5
ATOM      5  N   UNL d   1      -3.074  -2.621 -19.201  0.00  0.00     0.093 N 
ATOM      6  H1  UNL d   1      -2.651  -1.694 -19.153  0.00  0.00     0.314 HD
ATOM      7  H2  UNL d   1      -2.447  -3.249 -18.691  0.00  0.00     0.314 HD
ENDBRANCH   4   5
BRANCH   4   8
ATOM      8  C   UNL d   1      -1.920  -2.698 -21.413  0.00  0.00     0.174 C 
ATOM      9  OXT UNL d   1      -1.138  -1.821 -21.069  0.00  0.00    -0.648 OA
BRANCH   8  10
ATOM     10  O   UNL d   1      -1.746  -3.394 -22.558  0.00  0.00    -0.775 OA
ATOM     11  H   UNL d   1      -0.961  -3.993 -22.535  0.00  0.00     0.167 HD
ENDBRANCH   8  10
ENDBRANCH   4   8
ENDBRANCH   3   4
ENDBRANCH   1   3
BRANCH   1  12
ATOM     12  C   UNL d   1      -5.998  -0.760 -20.424  0.00  0.00     0.031 A 
ATOM     13  C   UNL d   1      -6.822  -0.305 -21.467  0.00  0.00     0.017 A 
ATOM     14  C   UNL d   1      -7.200   1.036 -21.540  0.00  0.00     0.001 A 
ATOM     15  C   UNL d   1      -6.777   1.930 -20.565  0.00  0.00     0.002 A 
ATOM     16  C   UNL d   1      -5.966   1.486 -19.519  0.00  0.00     0.024 A 
ATOM     17  C   UNL d   1      -5.522   0.156 -19.458  0.00  0.00     0.019 A 
BRANCH  17  18
ATOM     18  N   UNL d   1      -4.824  -0.253 -18.305  0.00  0.00    -0.302 NA
ATOM     19  H   UNL d   1      -4.242   0.470 -17.893  0.00  0.00     0.124 HD
ATOM     20  H   UNL d   1      -4.302  -1.119 -18.462  0.00  0.00     0.124 HD
ENDBRANCH  17  18
ENDBRANCH   1  12
TORSDOF 7
ENDMDL
MODEL 5
REMARK VINA RESULT:      -5.7     27.232     29.711
REMARK  7 active torsions:
REMARK  status: ('A' for Active; 'I' for Inactive)
REMARK    1  A    between atoms: C_2  and  O_1 
REMARK    2  A    between atoms: CA_3  and  C_2 
REMARK    3  A    between atoms: N_6  and  CA_3 
REMARK    4  A    between atoms: CA_3  and  C_5 
REMARK    5  A    between atoms: C_5  and  C_7 
REMARK    6  A    between atoms: C_7  and  C_8 
REMARK    7  A    between atoms: C_11  and  N_13 
ROOT
ATOM      1  C   UNL d   1      11.725 -10.105  12.024  0.00  0.00     0.164 C 
ATOM      2  O   UNL d   1      11.431  -8.981  12.443  0.00  0.00    -0.292 OA
ENDROOT
BRANCH   1   3
ATOM      3  C   UNL d   1      11.160 -11.362  12.672  0.00  0.00     0.130 C 
BRANCH   3   4
ATOM      4  CA  UNL d   1       9.664 -11.593  12.429  0.00  0.00     0.321 C 
BRANCH   4   5
ATOM      5  N   UNL d   1       9.135 -10.911  11.231  0.00  0.00     0.093 N 
ATOM      6  H1  UNL d   1       8.117 -10.980  11.199  0.00  0.00     0.314 HD
ATOM      7  H2  UNL d   1       9.482 -11.390  10.397  0.00  0.00     0.314 HD
ENDBRANCH   4   5
BRANCH   4   8
ATOM      8  C   UNL d   1       8.818 -11.297  13.677  0.00  0.00     0.174 C 
ATOM      9  OXT UNL d   1       7.975 -12.070  14.114  0.00  0.00    -0.648 OA
BRANCH   8  10
ATOM     10  O   UNL d   1       9.055 -10.102  14.261  0.00  0.00    -0.775 OA
ATOM     11  H   UNL d   1       8.938  -9.337  13.646  0.00  0.00     0.167 HD
ENDBRANCH   8  10
ENDBRANCH   4   8
ENDBRANCH   3   4
ENDBRANCH   1   3
BRANCH   1  12
ATOM     12  C   UNL d   1      12.679 -10.257  10.875  0.00  0.00     0.031 A 
ATOM     13  C   UNL d   1      12.283 -10.962   9.727  0.00  0.00     0.017 A 
ATOM     14  C   UNL d   1      13.165 -11.134   8.660  0.00  0.00     0.001 A 
ATOM     15  C   UNL d   1      14.441 -10.589   8.720  0.00  0.00     0.002 A 
ATOM     16  C   UNL d   1      14.841  -9.878   9.853  0.00  0.00     0.024 A 
ATOM     17  C   UNL d   1      13.993  -9.744  10.963  0.00  0.00     0.019 A 
BRANCH  17  18
ATOM     18  N   UNL d   1      14.408  -8.899  12.010  0.00  0.00    -0.302 NA
ATOM     19  H   UNL d   1      15.320  -9.129  12.394  0.00  0.00     0.124 HD
ATOM     20  H   UNL d   1      13.696  -8.818  12.741  0.00  0.00     0.124 HD
ENDBRANCH  17  18
ENDBRANCH   1  12
TORSDOF 7
ENDMDL
MODEL 6
REMARK VINA RESULT:      -5.7     49.905     51.190
REMARK  7 active torsions:
REMARK  status: ('A' for Active; 'I' for Inactive)
REMARK    1  A    between atoms: C_2  and  O_1 
REMARK    2  A    between atoms: CA_3  and  C_2 
REMARK    3  A    between atoms: N_6  and  CA_3 
REMARK    4  A    between atoms: CA_3  and  C_5 
REMARK    5  A    between atoms: C_5  and  C_7 
REMARK    6  A    between atoms: C_7  and  C_8 
REMARK    7  A    between atoms: C_11  and  N_13 
ROOT
ATOM      1  C   UNL d   1     -20.748  14.723   2.313  0.00  0.00     0.164 C 
ATOM      2  O   UNL d   1     -21.676  15.494   2.576  0.00  0.00    -0.292 OA
ENDROOT
BRANCH   1   3
ATOM      3  C   UNL d   1     -19.886  14.920   1.073  0.00  0.00     0.130 C 
BRANCH   3   4
ATOM      4  CA  UNL d   1     -20.528  14.449  -0.237  0.00  0.00     0.321 C 
BRANCH   4   5
ATOM      5  N   UNL d   1     -22.004  14.415  -0.208  0.00  0.00     0.093 N 
ATOM      6  H1  UNL d   1     -22.345  13.473  -0.402  0.00  0.00     0.314 HD
ATOM      7  H2  UNL d   1     -22.363  15.011  -0.957  0.00  0.00     0.314 HD
ENDBRANCH   4   5
BRANCH   4   8
ATOM      8  C   UNL d   1     -19.935  13.120  -0.732  0.00  0.00     0.174 C 
ATOM      9  OXT UNL d   1     -18.753  12.981  -1.021  0.00  0.00    -0.648 OA
BRANCH   8  10
ATOM     10  O   UNL d   1     -20.818  12.104  -0.846  0.00  0.00    -0.775 OA
ATOM     11  H   UNL d   1     -20.606  11.336  -0.262  0.00  0.00     0.167 HD
ENDBRANCH   8  10
ENDBRANCH   4   8
ENDBRANCH   3   4
ENDBRANCH   1   3
BRANCH   1  12
ATOM     12  C   UNL d   1     -20.467  13.548   3.203  0.00  0.00     0.031 A 
ATOM     13  C   UNL d   1     -19.548  13.674   4.259  0.00  0.00     0.017 A 
ATOM     14  C   UNL d   1     -19.257  12.585   5.080  0.00  0.00     0.001 A 
ATOM     15  C   UNL d   1     -19.892  11.368   4.871  0.00  0.00     0.002 A 
ATOM     16  C   UNL d   1     -20.814  11.234   3.830  0.00  0.00     0.024 A 
ATOM     17  C   UNL d   1     -21.078  12.297   2.953  0.00  0.00     0.019 A 
BRANCH  17  18
ATOM     18  N   UNL d   1     -22.117  12.136   2.017  0.00  0.00    -0.302 NA
ATOM     19  H   UNL d   1     -22.904  11.592   2.358  0.00  0.00     0.124 HD
ATOM     20  H   UNL d   1     -21.772  11.785   1.119  0.00  0.00     0.124 HD
ENDBRANCH  17  18
ENDBRANCH   1  12
TORSDOF 7
ENDMDL
MODEL 7
REMARK VINA RESULT:      -5.5     29.107     31.674
REMARK  7 active torsions:
REMARK  status: ('A' for Active; 'I' for Inactive)
REMARK    1  A    between atoms: C_2  and  O_1 
REMARK    2  A    between atoms: CA_3  and  C_2 
REMARK    3  A    between atoms: N_6  and  CA_3 
REMARK    4  A    between atoms: CA_3  and  C_5 
REMARK    5  A    between atoms: C_5  and  C_7 
REMARK    6  A    between atoms: C_7  and  C_8 
REMARK    7  A    between atoms: C_11  and  N_13 
ROOT
ATOM      1  C   UNL d   1      10.872   1.850  14.120  0.00  0.00     0.164 C 
ATOM      2  O   UNL d   1      10.837   2.984  13.631  0.00  0.00    -0.292 OA
ENDROOT
BRANCH   1   3
ATOM      3  C   UNL d   1      11.523   0.691  13.378  0.00  0.00     0.130 C 
BRANCH   3   4
ATOM      4  CA  UNL d   1      12.938   0.339  13.852  0.00  0.00     0.321 C 
BRANCH   4   5
ATOM      5  N   UNL d   1      12.979  -0.424  15.114  0.00  0.00     0.093 N 
ATOM      6  H1  UNL d   1      12.879   0.201  15.915  0.00  0.00     0.314 HD
ATOM      7  H2  UNL d   1      13.898  -0.863  15.206  0.00  0.00     0.314 HD
ENDBRANCH   4   5
BRANCH   4   8
ATOM      8  C   UNL d   1      13.860   1.568  13.895  0.00  0.00     0.174 C 
ATOM      9  OXT UNL d   1      14.412   2.026  12.903  0.00  0.00    -0.648 OA
BRANCH   8  10
ATOM     10  O   UNL d   1      14.040   2.107  15.121  0.00  0.00    -0.775 OA
ATOM     11  H   UNL d   1      14.838   1.758  15.587  0.00  0.00     0.167 HD
ENDBRANCH   8  10
ENDBRANCH   4   8
ENDBRANCH   3   4
ENDBRANCH   1   3
BRANCH   1  12
ATOM     12  C   UNL d   1      10.240   1.584  15.454  0.00  0.00     0.031 A 
ATOM     13  C   UNL d   1       9.363   0.497  15.608  0.00  0.00     0.017 A 
ATOM     14  C   UNL d   1       8.747   0.249  16.835  0.00  0.00     0.001 A 
ATOM     15  C   UNL d   1       9.014   1.069  17.924  0.00  0.00     0.002 A 
ATOM     16  C   UNL d   1       9.892   2.147  17.784  0.00  0.00     0.024 A 
ATOM     17  C   UNL d   1      10.475   2.452  16.545  0.00  0.00     0.019 A 
BRANCH  17  18
ATOM     18  N   UNL d   1      11.454   3.464  16.510  0.00  0.00    -0.302 NA
ATOM     19  H   UNL d   1      12.026   3.461  15.671  0.00  0.00     0.124 HD
ATOM     20  H   UNL d   1      12.024   3.474  17.360  0.00  0.00     0.124 HD
ENDBRANCH  17  18
ENDBRANCH   1  12
TORSDOF 7
ENDMDL
MODEL 8
REMARK VINA RESULT:      -5.5     31.458     32.584
REMARK  7 active torsions:
REMARK  status: ('A' for Active; 'I' for Inactive)
REMARK    1  A    between atoms: C_2  and  O_1 
REMARK    2  A    between atoms: CA_3  and  C_2 
REMARK    3  A    between atoms: N_6  and  CA_3 
REMARK    4  A    between atoms: CA_3  and  C_5 
REMARK    5  A    between atoms: C_5  and  C_7 
REMARK    6  A    between atoms: C_7  and  C_8 
REMARK    7  A    between atoms: C_11  and  N_13 
ROOT
ATOM      1  C   UNL d   1      -4.855  -1.856 -20.132  0.00  0.00     0.164 C 
ATOM      2  O   UNL d   1      -3.759  -1.975 -20.690  0.00  0.00    -0.292 OA
ENDROOT
BRANCH   1   3
ATOM      3  C   UNL d   1      -5.347  -2.892 -19.130  0.00  0.00     0.130 C 
BRANCH   3   4
ATOM      4  CA  UNL d   1      -4.244  -3.547 -18.290  0.00  0.00     0.321 C 
BRANCH   4   5
ATOM      5  N   UNL d   1      -4.700  -4.700 -17.489  0.00  0.00     0.093 N 
ATOM      6  H1  UNL d   1      -4.624  -4.497 -16.492  0.00  0.00     0.314 HD
ATOM      7  H2  UNL d   1      -4.080  -5.494 -17.669  0.00  0.00     0.314 HD
ENDBRANCH   4   5
BRANCH   4   8
ATOM      8  C   UNL d   1      -3.477  -2.525 -17.436  0.00  0.00     0.174 C 
ATOM      9  OXT UNL d   1      -2.291  -2.269 -17.603  0.00  0.00    -0.648 OA
BRANCH   8  10
ATOM     10  O   UNL d   1      -4.202  -1.929 -16.464  0.00  0.00    -0.775 OA
ATOM     11  H   UNL d   1      -4.262  -0.949 -16.568  0.00  0.00     0.167 HD
ENDBRANCH   8  10
ENDBRANCH   4   8
ENDBRANCH   3   4
ENDBRANCH   1   3
BRANCH   1  12
ATOM     12  C   UNL d   1      -5.745  -0.693 -20.458  0.00  0.00     0.031 A 
ATOM     13  C   UNL d   1      -6.551  -0.730 -21.608  0.00  0.00     0.017 A 
ATOM     14  C   UNL d   1      -7.365   0.353 -21.940  0.00  0.00     0.001 A 
ATOM     15  C   UNL d   1      -7.400   1.472 -21.118  0.00  0.00     0.002 A 
ATOM     16  C   UNL d   1      -6.610   1.515 -19.967  0.00  0.00     0.024 A 
ATOM     17  C   UNL d   1      -5.738   0.464 -19.646  0.00  0.00     0.019 A 
BRANCH  17  18
ATOM     18  N   UNL d   1      -5.078   0.513 -18.403  0.00  0.00    -0.302 NA
ATOM     19  H   UNL d   1      -5.587   1.014 -17.681  0.00  0.00     0.124 HD
ATOM     20  H   UNL d   1      -4.116   0.849 -18.494  0.00  0.00     0.124 HD
ENDBRANCH  17  18
ENDBRANCH   1  12
TORSDOF 7
ENDMDL
MODEL 9
REMARK VINA RESULT:      -5.5     25.964     27.308
REMARK  7 active torsions:
REMARK  status: ('A' for Active; 'I' for Inactive)
REMARK    1  A    between atoms: C_2  and  O_1 
REMARK    2  A    between atoms: CA_3  and  C_2 
REMARK    3  A    between atoms: N_6  and  CA_3 
REMARK    4  A    between atoms: CA_3  and  C_5 
REMARK    5  A    between atoms: C_5  and  C_7 
REMARK    6  A    between atoms: C_7  and  C_8 
REMARK    7  A    between atoms: C_11  and  N_13 
ROOT
ATOM      1  C   UNL d   1       4.733   1.296 -26.898  0.00  0.00     0.164 C 
ATOM      2  O   UNL d   1       4.993   1.508 -25.709  0.00  0.00    -0.292 OA
ENDROOT
BRANCH   1   3
ATOM      3  C   UNL d   1       5.578   1.902 -28.011  0.00  0.00     0.130 C 
BRANCH   3   4
ATOM      4  CA  UNL d   1       5.730   3.426 -27.946  0.00  0.00     0.321 C 
BRANCH   4   5
ATOM      5  N   UNL d   1       5.613   4.100 -29.253  0.00  0.00     0.093 N 
ATOM      6  H1  UNL d   1       5.066   4.958 -29.167  0.00  0.00     0.314 HD
ATOM      7  H2  UNL d   1       5.097   3.493 -29.895  0.00  0.00     0.314 HD
ENDBRANCH   4   5
BRANCH   4   8
ATOM      8  C   UNL d   1       6.999   3.854 -27.191  0.00  0.00     0.174 C 
ATOM      9  OXT UNL d   1       8.009   4.254 -27.755  0.00  0.00    -0.648 OA
BRANCH   8  10
ATOM     10  O   UNL d   1       6.933   3.741 -25.847  0.00  0.00    -0.775 OA
ATOM     11  H   UNL d   1       7.363   4.493 -25.371  0.00  0.00     0.167 HD
ENDBRANCH   8  10
ENDBRANCH   4   8
ENDBRANCH   3   4
ENDBRANCH   1   3
BRANCH   1  12
ATOM     12  C   UNL d   1       3.549   0.454 -27.274  0.00  0.00     0.031 A 
ATOM     13  C   UNL d   1       2.445   1.044 -27.912  0.00  0.00     0.017 A 
ATOM     14  C   UNL d   1       1.326   0.281 -28.245  0.00  0.00     0.001 A 
ATOM     15  C   UNL d   1       1.305  -1.079 -27.965  0.00  0.00     0.002 A 
ATOM     16  C   UNL d   1       2.401  -1.677 -27.340  0.00  0.00     0.024 A 
ATOM     17  C   UNL d   1       3.512  -0.919 -26.940  0.00  0.00     0.019 A 
BRANCH  17  18
ATOM     18  N   UNL d   1       4.635  -1.608 -26.443  0.00  0.00    -0.302 NA
ATOM     19  H   UNL d   1       5.454  -1.024 -26.301  0.00  0.00     0.124 HD
ATOM     20  H   UNL d   1       4.852  -2.439 -27.001  0.00  0.00     0.124 HD
ENDBRANCH  17  18
ENDBRANCH   1  12
TORSDOF 7
ENDMDL
