MODEL 1
REMARK VINA RESULT:      -6.6      0.000      0.000
REMARK WARNING: 32 MAX_TORS EXCEEDED!!!
REMARK  35 active torsions:
REMARK  status: ('A' for Active; 'I' for Inactive)
REMARK    1  A    between atoms: C_2  and  O_1 
REMARK    2  A    between atoms: CA_3  and  C_2 
REMARK    3  A    between atoms: C_4  and  CA_3 
REMARK    4  A    between atoms: CA_3  and  N_5 
REMARK       I    between atoms: N_6  and  C_4 
REMARK       I    between atoms: N_5  and  C_8 
REMARK    5  A    between atoms: C_9  and  N_6 
REMARK    6  A    between atoms: CA_10  and  C_8 
REMARK    7  A    between atoms: C_9  and  C_13 
REMARK    8  A    between atoms: C_9  and  C_12 
REMARK    9  A    between atoms: CA_10  and  N_15 
REMARK   10  A    between atoms: CA_10  and  CB_14 
REMARK       I    between atoms: N_16  and  C_12 
REMARK   11  A    between atoms: C_13  and  C_18 
REMARK   12  A    between atoms: CB_14  and  CG_19 
REMARK       I    between atoms: N_15  and  C_20 
REMARK   13  A    between atoms: C_21  and  N_16 
REMARK   14  A    between atoms: CA_26  and  C_20 
REMARK   15  A    between atoms: C_28  and  C_21 
REMARK   16  A    between atoms: C_21  and  C_29 
REMARK   17  A    between atoms: CA_26  and  N_35 
REMARK   18  A    between atoms: CA_26  and  CB_36 
REMARK       I    between atoms: N_37  and  C_28 
REMARK   19  A    between atoms: C_29  and  O_39 
REMARK       I    between atoms: N_35  and  C_43 
REMARK   20  A    between atoms: CB_36  and  CG_44 
REMARK   21  A    between atoms: C_45  and  N_37 
REMARK   22  A    between atoms: O_39  and  C_46 
REMARK   23  A    between atoms: C_40  and  O_47 
REMARK   24  A    between atoms: C_43  and  CA_49 
REMARK   25  A    between atoms: C_54  and  C_45 
REMARK   26  A    between atoms: C_45  and  C_53 
REMARK       I    between atoms: C_53  and  N_62 
REMARK   27  A    between atoms: C_64  and  C_54 
REMARK   28  A    between atoms: N_62  and  C_67 
REMARK   29  A    between atoms: C_67  and  C_72 
REMARK   30  A    between atoms: C_67  and  C_71 
REMARK       I    between atoms: C_71  and  N_73 
REMARK   31  A    between atoms: C_72  and  C_75 
REMARK   32  A    between atoms: C_75  and  C_78 
REMARK   33  A    between atoms: C_77  and  C_81 
REMARK   34  A    between atoms: C_78  and  N_82 
REMARK       I    between atoms: C_81  and  N_83 
REMARK   35  A    between atoms: N_83  and  N_86 
REMARK       I    between atoms: C_85  and  N_87 
REMARK       I    between atoms: C_85  and  N_88 
REMARK       I    between atoms: N_86  and  C_89 
REMARK       I    between atoms: C_89  and  N_91 
ROOT
ATOM      1  C   UNL d   1      -8.501  12.390  -3.388  0.00  0.00     0.180 C 
ENDROOT
BRANCH   1   2
ATOM      2  N   UNL d   1      -8.744  10.982  -3.064  0.00  0.00    -0.346 N 
ATOM      3  C   UNL d   1      -9.444  10.436  -2.009  0.00  0.00     0.243 C 
ATOM      4  O   UNL d   1      -9.755  11.075  -1.009  0.00  0.00    -0.271 OA
ATOM      5  H   UNL d   1      -8.562  10.332  -3.828  0.00  0.00     0.163 HD
BRANCH   3   6
ATOM      6  CA  UNL d   1      -9.596   8.883  -2.131  0.00  0.00     0.200 C 
BRANCH   6   7
ATOM      7  C   UNL d   1      -9.579   8.565  -3.649  0.00  0.00     0.199 C 
BRANCH   7   8
ATOM      8  O   UNL d   1      -8.305   7.977  -3.978  0.00  0.00    -0.398 OA
ATOM      9  H   UNL d   1      -7.893   8.534  -4.664  0.00  0.00     0.209 HD
ENDBRANCH   7   8
ENDBRANCH   6   7
BRANCH   6  10
ATOM     10  N   UNL d   1     -10.886   8.366  -1.542  0.00  0.00    -0.344 N 
ATOM     11  C   UNL d   1     -11.162   7.038  -1.295  0.00  0.00     0.241 C 
ATOM     12  O   UNL d   1     -10.293   6.182  -1.485  0.00  0.00    -0.271 OA
ATOM     13  H   UNL d   1     -11.633   9.045  -1.526  0.00  0.00     0.163 HD
BRANCH  11  14
ATOM     14  CA  UNL d   1     -12.616   6.624  -0.745  0.00  0.00     0.181 C 
BRANCH  14  15
ATOM     15  N   UNL d   1     -13.572   7.662  -0.213  0.00  0.00    -0.346 N 
ATOM     16  C   UNL d   1     -14.271   7.525   0.999  0.00  0.00     0.241 C 
ATOM     17  O   UNL d   1     -14.194   6.529   1.717  0.00  0.00    -0.271 OA
ATOM     18  H   UNL d   1     -13.603   8.556  -0.677  0.00  0.00     0.163 HD
BRANCH  16  19
ATOM     19  CA  UNL d   1     -15.161   8.719   1.463  0.00  0.00     0.182 C 
BRANCH  19  20
ATOM     20  N   UNL d   1     -14.735   9.889   0.704  0.00  0.00    -0.346 N 
ATOM     21  C   UNL d   1     -14.247  11.011   1.341  0.00  0.00     0.241 C 
ATOM     22  O   UNL d   1     -14.303  11.190   2.552  0.00  0.00    -0.271 OA
ATOM     23  H   UNL d   1     -14.292   9.687  -0.181  0.00  0.00     0.163 HD
BRANCH  21  24
ATOM     24  CA  UNL d   1     -13.709  12.049   0.356  0.00  0.00     0.177 C 
ATOM     25  C   UNL d   1     -14.762  12.846  -0.379  0.00  0.00     0.044 C 
ATOM     26  C   UNL d   1     -14.031  13.248  -1.655  0.00  0.00     0.105 C 
ATOM     27  C   UNL d   1     -13.087  12.103  -1.868  0.00  0.00     0.218 C 
ATOM     28  O   UNL d   1     -12.520  11.837  -2.924  0.00  0.00    -0.274 OA
ATOM     29  N   UNL d   1     -12.948  11.435  -0.687  0.00  0.00    -0.348 N 
ATOM     30  H   UNL d   1     -12.337  10.635  -0.555  0.00  0.00     0.163 HD
ENDBRANCH  21  24
ENDBRANCH  19  20
BRANCH  19  31
ATOM     31  CB  UNL d   1     -16.693   8.489   1.551  0.00  0.00     0.093 C 
BRANCH  31  32
ATOM     32  CG  UNL d   1     -17.346   8.712   2.874  0.00  0.00     0.030 A 
ATOM     33  CD2 UNL d   1     -17.011   9.455   3.981  0.00  0.00     0.143 A 
ATOM     34  NE2 UNL d   1     -17.972   9.383   4.950  0.00  0.00    -0.254 NA
ATOM     35  CE1 UNL d   1     -18.868   8.551   4.475  0.00  0.00     0.207 A 
ATOM     36  ND1 UNL d   1     -18.528   8.099   3.230  0.00  0.00    -0.353 N 
ATOM     37  HD1 UNL d   1     -19.069   7.459   2.664  0.00  0.00     0.166 HD
ENDBRANCH  31  32
ENDBRANCH  19  31
ENDBRANCH  16  19
ENDBRANCH  14  15
BRANCH  14  38
ATOM     38  CB  UNL d   1     -13.279   5.671  -1.799  0.00  0.00     0.075 C 
BRANCH  38  39
ATOM     39  CG  UNL d   1     -12.965   4.240  -1.487  0.00  0.00    -0.028 C 
ATOM     40  CD1 UNL d   1     -12.089   3.451  -2.204  0.00  0.00     0.096 C 
ATOM     41  NE1 UNL d   1     -12.318   2.149  -1.870  0.00  0.00    -0.365 N 
ATOM     42  CE2 UNL d   1     -13.172   2.072  -0.802  0.00  0.00     0.042 A 
ATOM     43  HE1 UNL d   1     -11.969   1.362  -2.401  0.00  0.00     0.165 HD
ATOM     44  CZ2 UNL d   1     -13.640   0.948  -0.112  0.00  0.00     0.030 A 
ATOM     45  CD2 UNL d   1     -13.589   3.375  -0.516  0.00  0.00    -0.002 A 
ATOM     46  CH2 UNL d   1     -14.540   1.160   0.935  0.00  0.00     0.002 A 
ATOM     47  CZ3 UNL d   1     -14.972   2.441   1.257  0.00  0.00     0.001 A 
ATOM     48  CE3 UNL d   1     -14.531   3.549   0.523  0.00  0.00     0.014 A 
ENDBRANCH  38  39
ENDBRANCH  14  38
ENDBRANCH  11  14
ENDBRANCH   6  10
ENDBRANCH   3   6
ENDBRANCH   1   2
BRANCH   1  49
ATOM     49  C   UNL d   1      -7.048  12.860  -3.591  0.00  0.00     0.073 C 
BRANCH  49  50
ATOM     50  C   UNL d   1      -5.984  12.032  -4.281  0.00  0.00    -0.056 A 
ATOM     51  C   UNL d   1      -4.640  11.992  -3.895  0.00  0.00     0.010 A 
ATOM     52  C   UNL d   1      -3.705  11.254  -4.637  0.00  0.00     0.037 A 
ATOM     53  C   UNL d   1      -4.113  10.551  -5.768  0.00  0.00     0.065 A 
ATOM     54  C   UNL d   1      -5.440  10.558  -6.164  0.00  0.00     0.037 A 
ATOM     55  C   UNL d   1      -6.366  11.306  -5.432  0.00  0.00     0.010 A 
BRANCH  53  56
ATOM     56  O   UNL d   1      -3.229   9.851  -6.534  0.00  0.00    -0.361 OA
ATOM     57  H   UNL d   1      -3.695   9.098  -6.933  0.00  0.00     0.217 HD
ENDBRANCH  53  56
ENDBRANCH  49  50
ENDBRANCH   1  49
BRANCH   1  58
ATOM     58  C   UNL d   1      -9.563  12.736  -4.488  0.00  0.00     0.241 C 
ATOM     59  N   UNL d   1     -10.001  14.038  -4.619  0.00  0.00    -0.344 N 
ATOM     60  H   UNL d   1      -9.806  14.662  -3.846  0.00  0.00     0.163 HD
ATOM     61  O   UNL d   1      -9.999  11.815  -5.186  0.00  0.00    -0.271 OA
BRANCH  59  62
ATOM     62  C   UNL d   1     -11.173  14.421  -5.462  0.00  0.00     0.200 C 
BRANCH  62  63
ATOM     63  C   UNL d   1     -11.836  15.703  -4.820  0.00  0.00     0.243 C 
ATOM     64  N   UNL d   1     -11.981  15.731  -3.446  0.00  0.00    -0.346 N 
ATOM     65  H   UNL d   1     -11.531  15.002  -2.904  0.00  0.00     0.163 HD
ATOM     66  O   UNL d   1     -12.194  16.666  -5.500  0.00  0.00    -0.271 OA
BRANCH  64  67
ATOM     67  C   UNL d   1     -12.609  16.873  -2.682  0.00  0.00     0.177 C 
BRANCH  67  68
ATOM     68  C   UNL d   1     -14.165  16.712  -2.655  0.00  0.00     0.038 C 
BRANCH  68  69
ATOM     69  C   UNL d   1     -15.042  17.745  -3.424  0.00  0.00    -0.020 C 
ATOM     70  C   UNL d   1     -14.290  19.019  -3.808  0.00  0.00     0.009 C 
ATOM     71  C   UNL d   1     -15.649  17.119  -4.693  0.00  0.00     0.009 C 
ENDBRANCH  68  69
ENDBRANCH  67  68
BRANCH  67  72
ATOM     72  C   UNL d   1     -12.006  16.933  -1.239  0.00  0.00     0.241 C 
ATOM     73  O   UNL d   1     -12.071  17.927  -0.519  0.00  0.00    -0.271 OA
ATOM     74  N   UNL d   1     -11.387  15.779  -0.811  0.00  0.00    -0.346 N 
ATOM     75  H   UNL d   1     -11.267  15.021  -1.485  0.00  0.00     0.163 HD
BRANCH  74  76
ATOM     76  C   UNL d   1     -10.799  15.619   0.535  0.00  0.00     0.176 C 
BRANCH  76  77
ATOM     77  C   UNL d   1     -11.833  14.933   1.451  0.00  0.00     0.037 C 
BRANCH  77  78
ATOM     78  C   UNL d   1     -11.627  15.117   2.958  0.00  0.00     0.024 C 
BRANCH  78  79
ATOM     79  C   UNL d   1     -11.391  13.807   3.686  0.00  0.00     0.152 C 
BRANCH  79  80
ATOM     80  N   UNL d   1     -10.588  14.038   4.873  0.00  0.00    -0.268 NA
ATOM     81  C   UNL d   1      -9.385  13.598   4.854  0.00  0.00     0.143 C 
ATOM     82  N   UNL d   1      -8.723  12.972   3.856  0.00  0.00    -0.278 NA
ATOM     83  N   UNL d   1      -8.601  13.720   5.943  0.00  0.00    -0.278 NA
ATOM     84  H   UNL d   1      -9.296  12.429   3.223  0.00  0.00     0.126 HD
ATOM     85  H   UNL d   1      -7.907  12.453   4.160  0.00  0.00     0.126 HD
ATOM     86  H   UNL d   1      -9.099  14.222   6.679  0.00  0.00     0.126 HD
ATOM     87  H   UNL d   1      -8.251  12.836   6.293  0.00  0.00     0.126 HD
ENDBRANCH  79  80
ENDBRANCH  78  79
ENDBRANCH  77  78
ENDBRANCH  76  77
BRANCH  76  88
ATOM     88  C   UNL d   1      -9.390  14.945   0.446  0.00  0.00     0.243 C 
ATOM     89  O   UNL d   1      -9.219  13.776   0.824  0.00  0.00    -0.271 OA
ATOM     90  N   UNL d   1      -8.292  15.645  -0.024  0.00  0.00    -0.337 N 
ATOM     91  C   UNL d   1      -8.247  17.005  -0.529  0.00  0.00     0.127 C 
ATOM     92  C   UNL d   1      -7.027  14.949  -0.356  0.00  0.00     0.181 C 
ATOM     93  C   UNL d   1      -7.404  16.884  -1.783  0.00  0.00     0.022 C 
ATOM     94  C   UNL d   1      -6.353  15.847  -1.412  0.00  0.00     0.037 C 
BRANCH  92  95
ATOM     95  C   UNL d   1      -6.052  14.718   0.822  0.00  0.00     0.259 C 
ATOM     96  O   UNL d   1      -4.830  14.843   0.716  0.00  0.00    -0.269 OA
ATOM     97  N   UNL d   1      -6.622  14.225   1.979  0.00  0.00    -0.264 N 
ATOM     98  H   UNL d   1      -7.585  13.898   1.967  0.00  0.00     0.190 HD
BRANCH  97  99
ATOM     99  N   UNL d   1      -5.749  13.859   3.016  0.00  0.00    -0.249 N 
ATOM    100  C   UNL d   1      -5.563  14.561   4.172  0.00  0.00     0.332 C 
ATOM    101  N   UNL d   1      -6.441  15.550   4.437  0.00  0.00    -0.351 N 
ATOM    102  O   UNL d   1      -4.603  14.353   4.904  0.00  0.00    -0.246 OA
ATOM    103  H   UNL d   1      -7.168  15.838   3.806  0.00  0.00     0.160 HD
ATOM    104  H   UNL d   1      -6.232  16.156   5.217  0.00  0.00     0.160 HD
ATOM    105  H   UNL d   1      -5.080  13.119   2.804  0.00  0.00     0.192 HD
ENDBRANCH  97  99
ENDBRANCH  92  95
ENDBRANCH  76  88
ENDBRANCH  74  76
ENDBRANCH  67  72
ENDBRANCH  64  67
ENDBRANCH  62  63
BRANCH  62 106
ATOM    106  C   UNL d   1     -10.874  14.639  -6.988  0.00  0.00     0.203 C 
BRANCH 106 107
ATOM    107  O   UNL d   1      -9.562  15.178  -7.254  0.00  0.00    -0.379 OA
BRANCH 107 108
ATOM    108  C   UNL d   1      -8.600  14.380  -7.986  0.00  0.00     0.050 C 
ATOM    109  C   UNL d   1      -9.123  12.988  -8.341  0.00  0.00     0.045 C 
ATOM    110  C   UNL d   1      -8.364  15.065  -9.344  0.00  0.00     0.045 C 
ATOM    111  C   UNL d   1      -7.241  14.309  -7.278  0.00  0.00     0.045 C 
ENDBRANCH 107 108
ENDBRANCH 106 107
ENDBRANCH  62 106
ENDBRANCH  59  62
ENDBRANCH   1  58
TORSDOF 35
ENDMDL
MODEL 2
REMARK VINA RESULT:      -6.5      2.861     10.311
REMARK WARNING: 32 MAX_TORS EXCEEDED!!!
REMARK  35 active torsions:
REMARK  status: ('A' for Active; 'I' for Inactive)
REMARK    1  A    between atoms: C_2  and  O_1 
REMARK    2  A    between atoms: CA_3  and  C_2 
REMARK    3  A    between atoms: C_4  and  CA_3 
REMARK    4  A    between atoms: CA_3  and  N_5 
REMARK       I    between atoms: N_6  and  C_4 
REMARK       I    between atoms: N_5  and  C_8 
REMARK    5  A    between atoms: C_9  and  N_6 
REMARK    6  A    between atoms: CA_10  and  C_8 
REMARK    7  A    between atoms: C_9  and  C_13 
REMARK    8  A    between atoms: C_9  and  C_12 
REMARK    9  A    between atoms: CA_10  and  N_15 
REMARK   10  A    between atoms: CA_10  and  CB_14 
REMARK       I    between atoms: N_16  and  C_12 
REMARK   11  A    between atoms: C_13  and  C_18 
REMARK   12  A    between atoms: CB_14  and  CG_19 
REMARK       I    between atoms: N_15  and  C_20 
REMARK   13  A    between atoms: C_21  and  N_16 
REMARK   14  A    between atoms: CA_26  and  C_20 
REMARK   15  A    between atoms: C_28  and  C_21 
REMARK   16  A    between atoms: C_21  and  C_29 
REMARK   17  A    between atoms: CA_26  and  N_35 
REMARK   18  A    between atoms: CA_26  and  CB_36 
REMARK       I    between atoms: N_37  and  C_28 
REMARK   19  A    between atoms: C_29  and  O_39 
REMARK       I    between atoms: N_35  and  C_43 
REMARK   20  A    between atoms: CB_36  and  CG_44 
REMARK   21  A    between atoms: C_45  and  N_37 
REMARK   22  A    between atoms: O_39  and  C_46 
REMARK   23  A    between atoms: C_40  and  O_47 
REMARK   24  A    between atoms: C_43  and  CA_49 
REMARK   25  A    between atoms: C_54  and  C_45 
REMARK   26  A    between atoms: C_45  and  C_53 
REMARK       I    between atoms: C_53  and  N_62 
REMARK   27  A    between atoms: C_64  and  C_54 
REMARK   28  A    between atoms: N_62  and  C_67 
REMARK   29  A    between atoms: C_67  and  C_72 
REMARK   30  A    between atoms: C_67  and  C_71 
REMARK       I    between atoms: C_71  and  N_73 
REMARK   31  A    between atoms: C_72  and  C_75 
REMARK   32  A    between atoms: C_75  and  C_78 
REMARK   33  A    between atoms: C_77  and  C_81 
REMARK   34  A    between atoms: C_78  and  N_82 
REMARK       I    between atoms: C_81  and  N_83 
REMARK   35  A    between atoms: N_83  and  N_86 
REMARK       I    between atoms: C_85  and  N_87 
REMARK       I    between atoms: C_85  and  N_88 
REMARK       I    between atoms: N_86  and  C_89 
REMARK       I    between atoms: C_89  and  N_91 
ROOT
ATOM      1  C   UNL d   1     -12.534   4.669  -2.055  0.00  0.00     0.180 C 
ENDROOT
BRANCH   1   2
ATOM      2  N   UNL d   1     -11.420   5.597  -2.267  0.00  0.00    -0.346 N 
ATOM      3  C   UNL d   1     -10.945   6.139  -3.442  0.00  0.00     0.243 C 
ATOM      4  O   UNL d   1     -11.239   5.699  -4.549  0.00  0.00    -0.271 OA
ATOM      5  H   UNL d   1     -11.095   6.070  -1.425  0.00  0.00     0.163 HD
BRANCH   3   6
ATOM      6  CA  UNL d   1      -9.834   7.214  -3.200  0.00  0.00     0.200 C 
BRANCH   6   7
ATOM      7  C   UNL d   1      -9.945   7.621  -1.708  0.00  0.00     0.199 C 
BRANCH   7   8
ATOM      8  O   UNL d   1     -11.114   8.450  -1.545  0.00  0.00    -0.398 OA
ATOM      9  H   UNL d   1     -11.836   7.879  -1.225  0.00  0.00     0.209 HD
ENDBRANCH   7   8
ENDBRANCH   6   7
BRANCH   6  10
ATOM     10  N   UNL d   1     -10.007   8.447  -4.053  0.00  0.00    -0.344 N 
ATOM     11  C   UNL d   1      -8.973   9.174  -4.604  0.00  0.00     0.241 C 
ATOM     12  O   UNL d   1      -7.808   8.783  -4.479  0.00  0.00    -0.271 OA
ATOM     13  H   UNL d   1     -10.938   8.837  -4.030  0.00  0.00     0.163 HD
BRANCH  11  14
ATOM     14  CA  UNL d   1      -9.304  10.521  -5.421  0.00  0.00     0.181 C 
BRANCH  14  15
ATOM     15  N   UNL d   1      -9.319  11.863  -4.735  0.00  0.00    -0.346 N 
ATOM     16  C   UNL d   1      -9.544  12.030  -3.357  0.00  0.00     0.241 C 
ATOM     17  O   UNL d   1      -9.785  11.097  -2.593  0.00  0.00    -0.271 OA
ATOM     18  H   UNL d   1      -9.014  12.666  -5.263  0.00  0.00     0.163 HD
BRANCH  16  19
ATOM     19  CA  UNL d   1      -9.446  13.473  -2.774  0.00  0.00     0.182 C 
BRANCH  19  20
ATOM     20  N   UNL d   1      -8.047  13.875  -2.861  0.00  0.00    -0.346 N 
ATOM     21  C   UNL d   1      -7.287  14.059  -1.725  0.00  0.00     0.241 C 
ATOM     22  O   UNL d   1      -7.749  14.085  -0.589  0.00  0.00    -0.271 OA
ATOM     23  H   UNL d   1      -7.539  13.488  -3.644  0.00  0.00     0.163 HD
BRANCH  21  24
ATOM     24  CA  UNL d   1      -5.815  14.316  -2.047  0.00  0.00     0.177 C 
ATOM     25  C   UNL d   1      -5.187  13.342  -3.017  0.00  0.00     0.044 C 
ATOM     26  C   UNL d   1      -3.713  13.414  -2.638  0.00  0.00     0.105 C 
ATOM     27  C   UNL d   1      -3.764  13.714  -1.169  0.00  0.00     0.218 C 
ATOM     28  O   UNL d   1      -2.839  13.558  -0.379  0.00  0.00    -0.274 OA
ATOM     29  N   UNL d   1      -4.999  14.216  -0.877  0.00  0.00    -0.348 N 
ATOM     30  H   UNL d   1      -5.281  14.528   0.047  0.00  0.00     0.163 HD
ENDBRANCH  21  24
ENDBRANCH  19  20
BRANCH  19  31
ATOM     31  CB  UNL d   1     -10.484  14.521  -3.256  0.00  0.00     0.093 C 
BRANCH  31  32
ATOM     32  CG  UNL d   1     -11.144  15.363  -2.217  0.00  0.00     0.030 A 
ATOM     33  CD2 UNL d   1     -11.070  15.402  -0.845  0.00  0.00     0.143 A 
ATOM     34  NE2 UNL d   1     -11.840  16.404  -0.324  0.00  0.00    -0.254 NA
ATOM     35  CE1 UNL d   1     -12.438  16.944  -1.360  0.00  0.00     0.207 A 
ATOM     36  ND1 UNL d   1     -12.067  16.338  -2.528  0.00  0.00    -0.353 N 
ATOM     37  HD1 UNL d   1     -12.389  16.588  -3.454  0.00  0.00     0.166 HD
ENDBRANCH  31  32
ENDBRANCH  19  31
ENDBRANCH  16  19
ENDBRANCH  14  15
BRANCH  14  38
ATOM     38  CB  UNL d   1      -8.443  10.516  -6.731  0.00  0.00     0.075 C 
BRANCH  38  39
ATOM     39  CG  UNL d   1      -7.459  11.644  -6.719  0.00  0.00    -0.028 C 
ATOM     40  CD1 UNL d   1      -7.707  12.912  -7.206  0.00  0.00     0.096 C 
ATOM     41  NE1 UNL d   1      -6.513  13.551  -7.360  0.00  0.00    -0.365 N 
ATOM     42  CE2 UNL d   1      -5.503  12.820  -6.793  0.00  0.00     0.042 A 
ATOM     43  HE1 UNL d   1      -6.394  14.399  -7.896  0.00  0.00     0.165 HD
ATOM     44  CZ2 UNL d   1      -4.140  13.115  -6.684  0.00  0.00     0.030 A 
ATOM     45  CD2 UNL d   1      -6.063  11.615  -6.358  0.00  0.00    -0.002 A 
ATOM     46  CH2 UNL d   1      -3.318  12.164  -6.076  0.00  0.00     0.002 A 
ATOM     47  CZ3 UNL d   1      -3.837  10.958  -5.620  0.00  0.00     0.001 A 
ATOM     48  CE3 UNL d   1      -5.196  10.659  -5.783  0.00  0.00     0.014 A 
ENDBRANCH  38  39
ENDBRANCH  14  38
ENDBRANCH  11  14
ENDBRANCH   6  10
ENDBRANCH   3   6
ENDBRANCH   1   2
BRANCH   1  49
ATOM     49  C   UNL d   1     -12.232   3.271  -1.483  0.00  0.00     0.073 C 
BRANCH  49  50
ATOM     50  C   UNL d   1     -13.165   2.520  -0.557  0.00  0.00    -0.056 A 
ATOM     51  C   UNL d   1     -13.749   3.068   0.590  0.00  0.00     0.010 A 
ATOM     52  C   UNL d   1     -14.544   2.278   1.434  0.00  0.00     0.037 A 
ATOM     53  C   UNL d   1     -14.760   0.936   1.131  0.00  0.00     0.065 A 
ATOM     54  C   UNL d   1     -14.209   0.370  -0.006  0.00  0.00     0.037 A 
ATOM     55  C   UNL d   1     -13.406   1.156  -0.837  0.00  0.00     0.010 A 
BRANCH  53  56
ATOM     56  O   UNL d   1     -15.497   0.128   1.944  0.00  0.00    -0.361 OA
ATOM     57  H   UNL d   1     -16.034   0.686   2.530  0.00  0.00     0.217 HD
ENDBRANCH  53  56
ENDBRANCH  49  50
ENDBRANCH   1  49
BRANCH   1  58
ATOM     58  C   UNL d   1     -13.649   5.535  -1.372  0.00  0.00     0.241 C 
ATOM     59  N   UNL d   1     -13.310   6.372  -0.329  0.00  0.00    -0.344 N 
ATOM     60  H   UNL d   1     -12.413   6.210   0.110  0.00  0.00     0.163 HD
ATOM     61  O   UNL d   1     -14.810   5.412  -1.776  0.00  0.00    -0.271 OA
BRANCH  59  62
ATOM     62  C   UNL d   1     -14.325   7.047   0.534  0.00  0.00     0.200 C 
BRANCH  62  63
ATOM     63  C   UNL d   1     -14.668   8.445  -0.117  0.00  0.00     0.243 C 
ATOM     64  N   UNL d   1     -14.843   8.487  -1.488  0.00  0.00    -0.346 N 
ATOM     65  H   UNL d   1     -14.884   7.608  -1.992  0.00  0.00     0.163 HD
ATOM     66  O   UNL d   1     -14.806   9.467   0.556  0.00  0.00    -0.271 OA
BRANCH  64  67
ATOM     67  C   UNL d   1     -15.156   9.745  -2.264  0.00  0.00     0.177 C 
BRANCH  67  68
ATOM     68  C   UNL d   1     -16.666  10.118  -2.100  0.00  0.00     0.038 C 
BRANCH  68  69
ATOM     69  C   UNL d   1     -17.585  10.111  -3.358  0.00  0.00    -0.020 C 
ATOM     70  C   UNL d   1     -16.815  10.192  -4.676  0.00  0.00     0.009 C 
ATOM     71  C   UNL d   1     -18.485   8.862  -3.379  0.00  0.00     0.009 C 
ENDBRANCH  68  69
ENDBRANCH  67  68
BRANCH  67  72
ATOM     72  C   UNL d   1     -14.216  10.902  -1.787  0.00  0.00     0.241 C 
ATOM     73  O   UNL d   1     -12.996  10.884  -1.928  0.00  0.00    -0.271 OA
ATOM     74  N   UNL d   1     -14.852  11.970  -1.192  0.00  0.00    -0.346 N 
ATOM     75  H   UNL d   1     -15.853  11.888  -1.003  0.00  0.00     0.163 HD
BRANCH  74  76
ATOM     76  C   UNL d   1     -14.148  13.179  -0.719  0.00  0.00     0.176 C 
BRANCH  76  77
ATOM     77  C   UNL d   1     -15.026  14.412  -1.012  0.00  0.00     0.037 C 
BRANCH  77  78
ATOM     78  C   UNL d   1     -16.338  14.145  -1.758  0.00  0.00     0.024 C 
BRANCH  78  79
ATOM     79  C   UNL d   1     -16.255  14.480  -3.236  0.00  0.00     0.152 C 
BRANCH  79  80
ATOM     80  N   UNL d   1     -15.696  13.357  -3.966  0.00  0.00    -0.268 NA
ATOM     81  C   UNL d   1     -14.576  13.550  -4.556  0.00  0.00     0.143 C 
ATOM     82  N   UNL d   1     -13.798  14.654  -4.568  0.00  0.00    -0.278 NA
ATOM     83  N   UNL d   1     -14.028  12.573  -5.306  0.00  0.00    -0.278 NA
ATOM     84  H   UNL d   1     -14.286  15.535  -4.465  0.00  0.00     0.126 HD
ATOM     85  H   UNL d   1     -13.130  14.685  -5.330  0.00  0.00     0.126 HD
ATOM     86  H   UNL d   1     -14.606  11.733  -5.265  0.00  0.00     0.126 HD
ATOM     87  H   UNL d   1     -13.865  12.843  -6.269  0.00  0.00     0.126 HD
ENDBRANCH  79  80
ENDBRANCH  78  79
ENDBRANCH  77  78
ENDBRANCH  76  77
BRANCH  76  88
ATOM     88  C   UNL d   1     -13.669  12.997   0.760  0.00  0.00     0.243 C 
ATOM     89  O   UNL d   1     -12.479  12.760   1.018  0.00  0.00    -0.271 OA
ATOM     90  N   UNL d   1     -14.564  13.062   1.813  0.00  0.00    -0.337 N 
ATOM     91  C   UNL d   1     -15.988  13.338   1.762  0.00  0.00     0.127 C 
ATOM     92  C   UNL d   1     -14.090  13.153   3.214  0.00  0.00     0.181 C 
ATOM     93  C   UNL d   1     -16.191  14.335   2.885  0.00  0.00     0.022 C 
ATOM     94  C   UNL d   1     -15.235  13.860   3.968  0.00  0.00     0.037 C 
BRANCH  92  95
ATOM     95  C   UNL d   1     -13.768  11.810   3.908  0.00  0.00     0.259 C 
ATOM     96  O   UNL d   1     -13.295  11.738   5.045  0.00  0.00    -0.269 OA
ATOM     97  N   UNL d   1     -13.913  10.683   3.123  0.00  0.00    -0.264 N 
ATOM     98  H   UNL d   1     -14.065  10.782   2.122  0.00  0.00     0.190 HD
BRANCH  97  99
ATOM     99  N   UNL d   1     -13.484   9.463   3.669  0.00  0.00    -0.249 N 
ATOM    100  C   UNL d   1     -14.301   8.425   4.014  0.00  0.00     0.332 C 
ATOM    101  N   UNL d   1     -15.581   8.486   3.594  0.00  0.00    -0.351 N 
ATOM    102  O   UNL d   1     -13.912   7.512   4.733  0.00  0.00    -0.246 OA
ATOM    103  H   UNL d   1     -15.976   9.274   3.111  0.00  0.00     0.160 HD
ATOM    104  H   UNL d   1     -16.220   7.794   3.958  0.00  0.00     0.160 HD
ATOM    105  H   UNL d   1     -12.518   9.428   3.995  0.00  0.00     0.192 HD
ENDBRANCH  97  99
ENDBRANCH  92  95
ENDBRANCH  76  88
ENDBRANCH  74  76
ENDBRANCH  67  72
ENDBRANCH  64  67
ENDBRANCH  62  63
BRANCH  62 106
ATOM    106  C   UNL d   1     -15.629   6.222   0.828  0.00  0.00     0.203 C 
BRANCH 106 107
ATOM    107  O   UNL d   1     -16.839   6.856   0.362  0.00  0.00    -0.379 OA
BRANCH 107 108
ATOM    108  C   UNL d   1     -18.034   6.060   0.175  0.00  0.00     0.050 C 
ATOM    109  C   UNL d   1     -18.308   5.728  -1.292  0.00  0.00     0.045 C 
ATOM    110  C   UNL d   1     -17.793   4.695   0.845  0.00  0.00     0.045 C 
ATOM    111  C   UNL d   1     -19.262   6.682   0.853  0.00  0.00     0.045 C 
ENDBRANCH 107 108
ENDBRANCH 106 107
ENDBRANCH  62 106
ENDBRANCH  59  62
ENDBRANCH   1  58
TORSDOF 35
ENDMDL
MODEL 3
REMARK VINA RESULT:      -6.4      3.731     12.293
REMARK WARNING: 32 MAX_TORS EXCEEDED!!!
REMARK  35 active torsions:
REMARK  status: ('A' for Active; 'I' for Inactive)
REMARK    1  A    between atoms: C_2  and  O_1 
REMARK    2  A    between atoms: CA_3  and  C_2 
REMARK    3  A    between atoms: C_4  and  CA_3 
REMARK    4  A    between atoms: CA_3  and  N_5 
REMARK       I    between atoms: N_6  and  C_4 
REMARK       I    between atoms: N_5  and  C_8 
REMARK    5  A    between atoms: C_9  and  N_6 
REMARK    6  A    between atoms: CA_10  and  C_8 
REMARK    7  A    between atoms: C_9  and  C_13 
REMARK    8  A    between atoms: C_9  and  C_12 
REMARK    9  A    between atoms: CA_10  and  N_15 
REMARK   10  A    between atoms: CA_10  and  CB_14 
REMARK       I    between atoms: N_16  and  C_12 
REMARK   11  A    between atoms: C_13  and  C_18 
REMARK   12  A    between atoms: CB_14  and  CG_19 
REMARK       I    between atoms: N_15  and  C_20 
REMARK   13  A    between atoms: C_21  and  N_16 
REMARK   14  A    between atoms: CA_26  and  C_20 
REMARK   15  A    between atoms: C_28  and  C_21 
REMARK   16  A    between atoms: C_21  and  C_29 
REMARK   17  A    between atoms: CA_26  and  N_35 
REMARK   18  A    between atoms: CA_26  and  CB_36 
REMARK       I    between atoms: N_37  and  C_28 
REMARK   19  A    between atoms: C_29  and  O_39 
REMARK       I    between atoms: N_35  and  C_43 
REMARK   20  A    between atoms: CB_36  and  CG_44 
REMARK   21  A    between atoms: C_45  and  N_37 
REMARK   22  A    between atoms: O_39  and  C_46 
REMARK   23  A    between atoms: C_40  and  O_47 
REMARK   24  A    between atoms: C_43  and  CA_49 
REMARK   25  A    between atoms: C_54  and  C_45 
REMARK   26  A    between atoms: C_45  and  C_53 
REMARK       I    between atoms: C_53  and  N_62 
REMARK   27  A    between atoms: C_64  and  C_54 
REMARK   28  A    between atoms: N_62  and  C_67 
REMARK   29  A    between atoms: C_67  and  C_72 
REMARK   30  A    between atoms: C_67  and  C_71 
REMARK       I    between atoms: C_71  and  N_73 
REMARK   31  A    between atoms: C_72  and  C_75 
REMARK   32  A    between atoms: C_75  and  C_78 
REMARK   33  A    between atoms: C_77  and  C_81 
REMARK   34  A    between atoms: C_78  and  N_82 
REMARK       I    between atoms: C_81  and  N_83 
REMARK   35  A    between atoms: N_83  and  N_86 
REMARK       I    between atoms: C_85  and  N_87 
REMARK       I    between atoms: C_85  and  N_88 
REMARK       I    between atoms: N_86  and  C_89 
REMARK       I    between atoms: C_89  and  N_91 
ROOT
ATOM      1  C   UNL d   1     -13.286   4.571  -1.710  0.00  0.00     0.180 C 
ENDROOT
BRANCH   1   2
ATOM      2  N   UNL d   1     -12.491   5.422  -2.601  0.00  0.00    -0.346 N 
ATOM      3  C   UNL d   1     -11.175   5.814  -2.489  0.00  0.00     0.243 C 
ATOM      4  O   UNL d   1     -10.531   5.714  -1.450  0.00  0.00    -0.271 OA
ATOM      5  H   UNL d   1     -12.894   5.560  -3.527  0.00  0.00     0.163 HD
BRANCH   3   6
ATOM      6  CA  UNL d   1     -10.673   6.595  -3.750  0.00  0.00     0.200 C 
BRANCH   6   7
ATOM      7  C   UNL d   1      -9.483   5.779  -4.318  0.00  0.00     0.199 C 
BRANCH   7   8
ATOM      8  O   UNL d   1      -8.527   5.567  -3.260  0.00  0.00    -0.398 OA
ATOM      9  H   UNL d   1      -8.408   6.416  -2.797  0.00  0.00     0.209 HD
ENDBRANCH   7   8
ENDBRANCH   6   7
BRANCH   6  10
ATOM     10  N   UNL d   1     -10.196   7.990  -3.432  0.00  0.00    -0.344 N 
ATOM     11  C   UNL d   1     -10.865   8.887  -2.626  0.00  0.00     0.241 C 
ATOM     12  O   UNL d   1     -11.897   8.541  -2.043  0.00  0.00    -0.271 OA
ATOM     13  H   UNL d   1      -9.439   8.311  -4.019  0.00  0.00     0.163 HD
BRANCH  11  14
ATOM     14  CA  UNL d   1     -10.279  10.375  -2.446  0.00  0.00     0.181 C 
BRANCH  14  15
ATOM     15  N   UNL d   1     -10.548  11.171  -1.194  0.00  0.00    -0.346 N 
ATOM     16  C   UNL d   1     -10.908  12.531  -1.200  0.00  0.00     0.241 C 
ATOM     17  O   UNL d   1     -11.002  13.202  -2.227  0.00  0.00    -0.271 OA
ATOM     18  H   UNL d   1     -10.609  10.672  -0.321  0.00  0.00     0.163 HD
BRANCH  16  19
ATOM     19  CA  UNL d   1     -11.238  13.201   0.168  0.00  0.00     0.182 C 
BRANCH  19  20
ATOM     20  N   UNL d   1     -12.276  12.395   0.800  0.00  0.00    -0.346 N 
ATOM     21  C   UNL d   1     -13.325  12.987   1.473  0.00  0.00     0.241 C 
ATOM     22  O   UNL d   1     -13.374  14.179   1.753  0.00  0.00    -0.271 OA
ATOM     23  H   UNL d   1     -12.524  11.551   0.303  0.00  0.00     0.163 HD
BRANCH  21  24
ATOM     24  CA  UNL d   1     -14.378  11.970   1.914  0.00  0.00     0.177 C 
ATOM     25  C   UNL d   1     -15.760  12.185   1.340  0.00  0.00     0.044 C 
ATOM     26  C   UNL d   1     -16.650  11.528   2.389  0.00  0.00     0.105 C 
ATOM     27  C   UNL d   1     -15.877  11.740   3.657  0.00  0.00     0.218 C 
ATOM     28  O   UNL d   1     -16.337  11.657   4.791  0.00  0.00    -0.274 OA
ATOM     29  N   UNL d   1     -14.580  12.006   3.329  0.00  0.00    -0.348 N 
ATOM     30  H   UNL d   1     -13.842  12.157   4.009  0.00  0.00     0.163 HD
ENDBRANCH  21  24
ENDBRANCH  19  20
BRANCH  19  31
ATOM     31  CB  UNL d   1     -10.050  13.611   1.079  0.00  0.00     0.093 C 
BRANCH  31  32
ATOM     32  CG  UNL d   1      -9.839  15.068   1.319  0.00  0.00     0.030 A 
ATOM     33  CD2 UNL d   1      -8.750  15.898   1.197  0.00  0.00     0.143 A 
ATOM     34  NE2 UNL d   1      -9.067  17.196   1.489  0.00  0.00    -0.254 NA
ATOM     35  CE1 UNL d   1     -10.327  17.162   1.852  0.00  0.00     0.207 A 
ATOM     36  ND1 UNL d   1     -10.837  15.895   1.787  0.00  0.00    -0.353 N 
ATOM     37  HD1 UNL d   1     -11.787  15.626   2.009  0.00  0.00     0.166 HD
ENDBRANCH  31  32
ENDBRANCH  19  31
ENDBRANCH  16  19
ENDBRANCH  14  15
BRANCH  14  38
ATOM     38  CB  UNL d   1      -8.760  10.346  -2.834  0.00  0.00     0.075 C 
BRANCH  38  39
ATOM     39  CG  UNL d   1      -8.557  10.909  -4.207  0.00  0.00    -0.028 C 
ATOM     40  CD1 UNL d   1      -9.559  11.423  -5.005  0.00  0.00     0.096 C 
ATOM     41  NE1 UNL d   1      -9.088  11.506  -6.281  0.00  0.00    -0.365 N 
ATOM     42  CE2 UNL d   1      -7.740  11.260  -6.310  0.00  0.00     0.042 A 
ATOM     43  HE1 UNL d   1      -9.677  11.643  -7.091  0.00  0.00     0.165 HD
ATOM     44  CZ2 UNL d   1      -6.852  11.281  -7.391  0.00  0.00     0.030 A 
ATOM     45  CD2 UNL d   1      -7.362  10.898  -5.014  0.00  0.00    -0.002 A 
ATOM     46  CH2 UNL d   1      -5.517  10.957  -7.138  0.00  0.00     0.002 A 
ATOM     47  CZ3 UNL d   1      -5.098  10.601  -5.861  0.00  0.00     0.001 A 
ATOM     48  CE3 UNL d   1      -6.011  10.537  -4.802  0.00  0.00     0.014 A 
ENDBRANCH  38  39
ENDBRANCH  14  38
ENDBRANCH  11  14
ENDBRANCH   6  10
ENDBRANCH   3   6
ENDBRANCH   1   2
BRANCH   1  49
ATOM     49  C   UNL d   1     -12.591   3.392  -1.001  0.00  0.00     0.073 C 
BRANCH  49  50
ATOM     50  C   UNL d   1     -13.320   2.377  -0.146  0.00  0.00    -0.056 A 
ATOM     51  C   UNL d   1     -12.899   1.057   0.045  0.00  0.00     0.010 A 
ATOM     52  C   UNL d   1     -13.676   0.161   0.794  0.00  0.00     0.037 A 
ATOM     53  C   UNL d   1     -14.876   0.584   1.359  0.00  0.00     0.065 A 
ATOM     54  C   UNL d   1     -15.310   1.890   1.202  0.00  0.00     0.037 A 
ATOM     55  C   UNL d   1     -14.541   2.776   0.442  0.00  0.00     0.010 A 
BRANCH  53  56
ATOM     56  O   UNL d   1     -15.674  -0.266   2.065  0.00  0.00    -0.361 OA
ATOM     57  H   UNL d   1     -15.417  -1.178   1.854  0.00  0.00     0.217 HD
ENDBRANCH  53  56
ENDBRANCH  49  50
ENDBRANCH   1  49
BRANCH   1  58
ATOM     58  C   UNL d   1     -14.130   5.573  -0.850  0.00  0.00     0.241 C 
ATOM     59  N   UNL d   1     -13.481   6.477  -0.034  0.00  0.00    -0.344 N 
ATOM     60  H   UNL d   1     -12.504   6.292   0.161  0.00  0.00     0.163 HD
ATOM     61  O   UNL d   1     -15.362   5.497  -0.909  0.00  0.00    -0.271 OA
BRANCH  59  62
ATOM     62  C   UNL d   1     -14.187   7.299   0.993  0.00  0.00     0.200 C 
BRANCH  62  63
ATOM     63  C   UNL d   1     -15.070   8.370   0.238  0.00  0.00     0.243 C 
ATOM     64  N   UNL d   1     -16.439   8.175   0.221  0.00  0.00    -0.346 N 
ATOM     65  H   UNL d   1     -16.824   7.442   0.807  0.00  0.00     0.163 HD
ATOM     66  O   UNL d   1     -14.580   9.363  -0.300  0.00  0.00    -0.271 OA
BRANCH  64  67
ATOM     67  C   UNL d   1     -17.418   9.094  -0.471  0.00  0.00     0.177 C 
BRANCH  67  68
ATOM     68  C   UNL d   1     -17.266   8.974  -2.023  0.00  0.00     0.038 C 
BRANCH  68  69
ATOM     69  C   UNL d   1     -17.345  10.267  -2.889  0.00  0.00    -0.020 C 
ATOM     70  C   UNL d   1     -16.971  11.537  -2.125  0.00  0.00     0.009 C 
ATOM     71  C   UNL d   1     -16.449  10.151  -4.137  0.00  0.00     0.009 C 
ENDBRANCH  68  69
ENDBRANCH  67  68
BRANCH  67  72
ATOM     72  C   UNL d   1     -18.873   8.759  -0.001  0.00  0.00     0.241 C 
ATOM     73  O   UNL d   1     -19.710   9.615   0.272  0.00  0.00    -0.271 OA
ATOM     74  N   UNL d   1     -19.169   7.416   0.085  0.00  0.00    -0.346 N 
ATOM     75  H   UNL d   1     -18.408   6.748  -0.050  0.00  0.00     0.163 HD
BRANCH  74  76
ATOM     76  C   UNL d   1     -20.499   6.896   0.462  0.00  0.00     0.176 C 
BRANCH  76  77
ATOM     77  C   UNL d   1     -21.324   6.664  -0.820  0.00  0.00     0.037 C 
BRANCH  77  78
ATOM     78  C   UNL d   1     -21.528   5.203  -1.236  0.00  0.00     0.024 C 
BRANCH  78  79
ATOM     79  C   UNL d   1     -20.727   4.821  -2.466  0.00  0.00     0.152 C 
BRANCH  79  80
ATOM     80  N   UNL d   1     -19.309   4.822  -2.153  0.00  0.00    -0.268 NA
ATOM     81  C   UNL d   1     -18.497   4.859  -3.142  0.00  0.00     0.143 C 
ATOM     82  N   UNL d   1     -18.767   4.938  -4.464  0.00  0.00    -0.278 NA
ATOM     83  N   UNL d   1     -17.168   4.799  -2.931  0.00  0.00    -0.278 NA
ATOM     84  H   UNL d   1     -19.646   4.529  -4.757  0.00  0.00     0.126 HD
ATOM     85  H   UNL d   1     -18.002   4.649  -5.063  0.00  0.00     0.126 HD
ATOM     86  H   UNL d   1     -16.973   4.771  -1.929  0.00  0.00     0.126 HD
ATOM     87  H   UNL d   1     -16.716   4.023  -3.400  0.00  0.00     0.126 HD
ENDBRANCH  79  80
ENDBRANCH  78  79
ENDBRANCH  77  78
ENDBRANCH  76  77
BRANCH  76  88
ATOM     88  C   UNL d   1     -20.361   5.678   1.434  0.00  0.00     0.243 C 
ATOM     89  O   UNL d   1     -19.290   5.059   1.531  0.00  0.00    -0.271 OA
ATOM     90  N   UNL d   1     -21.438   5.236   2.183  0.00  0.00    -0.337 N 
ATOM     91  C   UNL d   1     -22.774   5.800   2.248  0.00  0.00     0.127 C 
ATOM     92  C   UNL d   1     -21.254   4.265   3.287  0.00  0.00     0.181 C 
ATOM     93  C   UNL d   1     -23.074   5.817   3.734  0.00  0.00     0.022 C 
ATOM     94  C   UNL d   1     -22.429   4.538   4.247  0.00  0.00     0.037 C 
BRANCH  92  95
ATOM     95  C   UNL d   1     -21.255   2.773   2.882  0.00  0.00     0.259 C 
ATOM     96  O   UNL d   1     -22.253   2.054   2.973  0.00  0.00    -0.269 OA
ATOM     97  N   UNL d   1     -20.026   2.248   2.537  0.00  0.00    -0.264 N 
ATOM     98  H   UNL d   1     -19.181   2.789   2.705  0.00  0.00     0.190 HD
BRANCH  97  99
ATOM     99  N   UNL d   1     -19.961   0.864   2.312  0.00  0.00    -0.249 N 
ATOM    100  C   UNL d   1     -18.993   0.032   2.798  0.00  0.00     0.332 C 
ATOM    101  N   UNL d   1     -18.172   0.533   3.742  0.00  0.00    -0.351 N 
ATOM    102  O   UNL d   1     -18.829  -1.096   2.348  0.00  0.00    -0.246 OA
ATOM    103  H   UNL d   1     -18.188   1.490   4.050  0.00  0.00     0.160 HD
ATOM    104  H   UNL d   1     -17.375  -0.028   4.006  0.00  0.00     0.160 HD
ATOM    105  H   UNL d   1     -20.577   0.494   1.588  0.00  0.00     0.192 HD
ENDBRANCH  97  99
ENDBRANCH  92  95
ENDBRANCH  76  88
ENDBRANCH  74  76
ENDBRANCH  67  72
ENDBRANCH  64  67
ENDBRANCH  62  63
BRANCH  62 106
ATOM    106  C   UNL d   1     -15.039   6.498   2.041  0.00  0.00     0.203 C 
BRANCH 106 107
ATOM    107  O   UNL d   1     -14.485   6.507   3.374  0.00  0.00    -0.379 OA
BRANCH 107 108
ATOM    108  C   UNL d   1     -14.867   7.555   4.296  0.00  0.00     0.050 C 
ATOM    109  C   UNL d   1     -16.257   8.126   4.011  0.00  0.00     0.045 C 
ATOM    110  C   UNL d   1     -14.985   6.924   5.695  0.00  0.00     0.045 C 
ATOM    111  C   UNL d   1     -13.811   8.664   4.392  0.00  0.00     0.045 C 
ENDBRANCH 107 108
ENDBRANCH 106 107
ENDBRANCH  62 106
ENDBRANCH  59  62
ENDBRANCH   1  58
TORSDOF 35
ENDMDL
MODEL 4
REMARK VINA RESULT:      -6.4      2.958     10.356
REMARK WARNING: 32 MAX_TORS EXCEEDED!!!
REMARK  35 active torsions:
REMARK  status: ('A' for Active; 'I' for Inactive)
REMARK    1  A    between atoms: C_2  and  O_1 
REMARK    2  A    between atoms: CA_3  and  C_2 
REMARK    3  A    between atoms: C_4  and  CA_3 
REMARK    4  A    between atoms: CA_3  and  N_5 
REMARK       I    between atoms: N_6  and  C_4 
REMARK       I    between atoms: N_5  and  C_8 
REMARK    5  A    between atoms: C_9  and  N_6 
REMARK    6  A    between atoms: CA_10  and  C_8 
REMARK    7  A    between atoms: C_9  and  C_13 
REMARK    8  A    between atoms: C_9  and  C_12 
REMARK    9  A    between atoms: CA_10  and  N_15 
REMARK   10  A    between atoms: CA_10  and  CB_14 
REMARK       I    between atoms: N_16  and  C_12 
REMARK   11  A    between atoms: C_13  and  C_18 
REMARK   12  A    between atoms: CB_14  and  CG_19 
REMARK       I    between atoms: N_15  and  C_20 
REMARK   13  A    between atoms: C_21  and  N_16 
REMARK   14  A    between atoms: CA_26  and  C_20 
REMARK   15  A    between atoms: C_28  and  C_21 
REMARK   16  A    between atoms: C_21  and  C_29 
REMARK   17  A    between atoms: CA_26  and  N_35 
REMARK   18  A    between atoms: CA_26  and  CB_36 
REMARK       I    between atoms: N_37  and  C_28 
REMARK   19  A    between atoms: C_29  and  O_39 
REMARK       I    between atoms: N_35  and  C_43 
REMARK   20  A    between atoms: CB_36  and  CG_44 
REMARK   21  A    between atoms: C_45  and  N_37 
REMARK   22  A    between atoms: O_39  and  C_46 
REMARK   23  A    between atoms: C_40  and  O_47 
REMARK   24  A    between atoms: C_43  and  CA_49 
REMARK   25  A    between atoms: C_54  and  C_45 
REMARK   26  A    between atoms: C_45  and  C_53 
REMARK       I    between atoms: C_53  and  N_62 
REMARK   27  A    between atoms: C_64  and  C_54 
REMARK   28  A    between atoms: N_62  and  C_67 
REMARK   29  A    between atoms: C_67  and  C_72 
REMARK   30  A    between atoms: C_67  and  C_71 
REMARK       I    between atoms: C_71  and  N_73 
REMARK   31  A    between atoms: C_72  and  C_75 
REMARK   32  A    between atoms: C_75  and  C_78 
REMARK   33  A    between atoms: C_77  and  C_81 
REMARK   34  A    between atoms: C_78  and  N_82 
REMARK       I    between atoms: C_81  and  N_83 
REMARK   35  A    between atoms: N_83  and  N_86 
REMARK       I    between atoms: C_85  and  N_87 
REMARK       I    between atoms: C_85  and  N_88 
REMARK       I    between atoms: N_86  and  C_89 
REMARK       I    between atoms: C_89  and  N_91 
ROOT
ATOM      1  C   UNL d   1     -12.405   4.678  -2.076  0.00  0.00     0.180 C 
ENDROOT
BRANCH   1   2
ATOM      2  N   UNL d   1     -11.329   5.650  -2.291  0.00  0.00    -0.346 N 
ATOM      3  C   UNL d   1     -10.989   6.338  -3.435  0.00  0.00     0.243 C 
ATOM      4  O   UNL d   1     -11.394   6.026  -4.550  0.00  0.00    -0.271 OA
ATOM      5  H   UNL d   1     -10.922   6.027  -1.436  0.00  0.00     0.163 HD
BRANCH   3   6
ATOM      6  CA  UNL d   1      -9.869   7.402  -3.183  0.00  0.00     0.200 C 
BRANCH   6   7
ATOM      7  C   UNL d   1     -10.157   8.009  -1.785  0.00  0.00     0.199 C 
BRANCH   7   8
ATOM      8  O   UNL d   1     -11.536   8.428  -1.743  0.00  0.00    -0.398 OA
ATOM      9  H   UNL d   1     -11.973   8.079  -2.541  0.00  0.00     0.209 HD
ENDBRANCH   7   8
ENDBRANCH   6   7
BRANCH   6  10
ATOM     10  N   UNL d   1      -9.868   8.514  -4.203  0.00  0.00    -0.344 N 
ATOM     11  C   UNL d   1      -8.738   9.148  -4.675  0.00  0.00     0.241 C 
ATOM     12  O   UNL d   1      -7.620   8.761  -4.322  0.00  0.00    -0.271 OA
ATOM     13  H   UNL d   1     -10.778   8.917  -4.375  0.00  0.00     0.163 HD
BRANCH  11  14
ATOM     14  CA  UNL d   1      -8.895  10.380  -5.699  0.00  0.00     0.181 C 
BRANCH  14  15
ATOM     15  N   UNL d   1      -9.168  11.776  -5.201  0.00  0.00    -0.346 N 
ATOM     16  C   UNL d   1     -10.377  12.162  -4.592  0.00  0.00     0.241 C 
ATOM     17  O   UNL d   1     -11.333  11.403  -4.445  0.00  0.00    -0.271 OA
ATOM     18  H   UNL d   1      -8.399  12.426  -5.175  0.00  0.00     0.163 HD
BRANCH  16  19
ATOM     19  CA  UNL d   1     -10.484  13.620  -4.051  0.00  0.00     0.182 C 
BRANCH  19  20
ATOM     20  N   UNL d   1     -11.063  14.430  -5.117  0.00  0.00    -0.346 N 
ATOM     21  C   UNL d   1     -10.278  14.940  -6.130  0.00  0.00     0.241 C 
ATOM     22  O   UNL d   1      -9.052  14.920  -6.123  0.00  0.00    -0.271 OA
ATOM     23  H   UNL d   1     -11.991  14.154  -5.407  0.00  0.00     0.163 HD
BRANCH  21  24
ATOM     24  CA  UNL d   1     -11.107  15.616  -7.222  0.00  0.00     0.177 C 
ATOM     25  C   UNL d   1     -11.225  17.118  -7.105  0.00  0.00     0.044 C 
ATOM     26  C   UNL d   1     -12.537  17.396  -7.830  0.00  0.00     0.105 C 
ATOM     27  C   UNL d   1     -13.328  16.149  -7.570  0.00  0.00     0.218 C 
ATOM     28  O   UNL d   1     -14.544  16.040  -7.692  0.00  0.00    -0.274 OA
ATOM     29  N   UNL d   1     -12.462  15.159  -7.208  0.00  0.00    -0.348 N 
ATOM     30  H   UNL d   1     -12.743  14.204  -7.008  0.00  0.00     0.163 HD
ENDBRANCH  21  24
ENDBRANCH  19  20
BRANCH  19  31
ATOM     31  CB  UNL d   1     -11.090  13.826  -2.638  0.00  0.00     0.093 C 
BRANCH  31  32
ATOM     32  CG  UNL d   1     -10.142  13.913  -1.489  0.00  0.00     0.030 A 
ATOM     33  CD2 UNL d   1      -8.835  13.526  -1.310  0.00  0.00     0.143 A 
ATOM     34  NE2 UNL d   1      -8.369  13.872  -0.073  0.00  0.00    -0.254 NA
ATOM     35  CE1 UNL d   1      -9.397  14.414   0.536  0.00  0.00     0.207 A 
ATOM     36  ND1 UNL d   1     -10.501  14.445  -0.270  0.00  0.00    -0.353 N 
ATOM     37  HD1 UNL d   1     -11.406  14.824  -0.022  0.00  0.00     0.166 HD
ENDBRANCH  31  32
ENDBRANCH  19  31
ENDBRANCH  16  19
ENDBRANCH  14  15
BRANCH  14  38
ATOM     38  CB  UNL d   1      -7.703  10.318  -6.716  0.00  0.00     0.075 C 
BRANCH  38  39
ATOM     39  CG  UNL d   1      -6.728  11.424  -6.452  0.00  0.00    -0.028 C 
ATOM     40  CD1 UNL d   1      -5.915  11.508  -5.339  0.00  0.00     0.096 C 
ATOM     41  NE1 UNL d   1      -5.440  12.783  -5.255  0.00  0.00    -0.365 N 
ATOM     42  CE2 UNL d   1      -5.745  13.484  -6.392  0.00  0.00     0.042 A 
ATOM     43  HE1 UNL d   1      -5.004  13.168  -4.428  0.00  0.00     0.165 HD
ATOM     44  CZ2 UNL d   1      -5.421  14.798  -6.745  0.00  0.00     0.030 A 
ATOM     45  CD2 UNL d   1      -6.543  12.652  -7.183  0.00  0.00    -0.002 A 
ATOM     46  CH2 UNL d   1      -5.894  15.275  -7.970  0.00  0.00     0.002 A 
ATOM     47  CZ3 UNL d   1      -6.681  14.476  -8.791  0.00  0.00     0.001 A 
ATOM     48  CE3 UNL d   1      -7.038  13.181  -8.397  0.00  0.00     0.014 A 
ENDBRANCH  38  39
ENDBRANCH  14  38
ENDBRANCH  11  14
ENDBRANCH   6  10
ENDBRANCH   3   6
ENDBRANCH   1   2
BRANCH   1  49
ATOM     49  C   UNL d   1     -12.044   3.288  -1.518  0.00  0.00     0.073 C 
BRANCH  49  50
ATOM     50  C   UNL d   1     -12.977   2.456  -0.663  0.00  0.00    -0.056 A 
ATOM     51  C   UNL d   1     -13.493   1.211  -1.038  0.00  0.00     0.010 A 
ATOM     52  C   UNL d   1     -14.411   0.542  -0.215  0.00  0.00     0.037 A 
ATOM     53  C   UNL d   1     -14.815   1.115   0.988  0.00  0.00     0.065 A 
ATOM     54  C   UNL d   1     -14.308   2.338   1.393  0.00  0.00     0.037 A 
ATOM     55  C   UNL d   1     -13.405   3.009   0.565  0.00  0.00     0.010 A 
BRANCH  53  56
ATOM     56  O   UNL d   1     -15.730   0.511   1.797  0.00  0.00    -0.361 OA
ATOM     57  H   UNL d   1     -16.214   1.199   2.284  0.00  0.00     0.217 HD
ENDBRANCH  53  56
ENDBRANCH  49  50
ENDBRANCH   1  49
BRANCH   1  58
ATOM     58  C   UNL d   1     -13.547   5.495  -1.378  0.00  0.00     0.241 C 
ATOM     59  N   UNL d   1     -13.233   6.333  -0.327  0.00  0.00    -0.344 N 
ATOM     60  H   UNL d   1     -12.327   6.199   0.105  0.00  0.00     0.163 HD
ATOM     61  O   UNL d   1     -14.705   5.334  -1.776  0.00  0.00    -0.271 OA
BRANCH  59  62
ATOM     62  C   UNL d   1     -14.266   6.960   0.550  0.00  0.00     0.200 C 
BRANCH  62  63
ATOM     63  C   UNL d   1     -14.647   8.362  -0.072  0.00  0.00     0.243 C 
ATOM     64  N   UNL d   1     -14.728   8.452  -1.449  0.00  0.00    -0.346 N 
ATOM     65  H   UNL d   1     -14.681   7.594  -1.987  0.00  0.00     0.163 HD
ATOM     66  O   UNL d   1     -14.893   9.345   0.628  0.00  0.00    -0.271 OA
BRANCH  64  67
ATOM     67  C   UNL d   1     -15.062   9.721  -2.198  0.00  0.00     0.177 C 
BRANCH  67  68
ATOM     68  C   UNL d   1     -16.583  10.052  -2.045  0.00  0.00     0.038 C 
BRANCH  68  69
ATOM     69  C   UNL d   1     -17.451  10.215  -3.329  0.00  0.00    -0.020 C 
ATOM     70  C   UNL d   1     -16.629  10.292  -4.615  0.00  0.00     0.009 C 
ATOM     71  C   UNL d   1     -18.472   9.069  -3.455  0.00  0.00     0.009 C 
ENDBRANCH  68  69
ENDBRANCH  67  68
BRANCH  67  72
ATOM     72  C   UNL d   1     -14.158  10.889  -1.679  0.00  0.00     0.241 C 
ATOM     73  O   UNL d   1     -12.933  10.886  -1.767  0.00  0.00    -0.271 OA
ATOM     74  N   UNL d   1     -14.832  11.947  -1.109  0.00  0.00    -0.346 N 
ATOM     75  H   UNL d   1     -15.838  11.852  -0.964  0.00  0.00     0.163 HD
BRANCH  74  76
ATOM     76  C   UNL d   1     -14.163  13.163  -0.604  0.00  0.00     0.176 C 
BRANCH  76  77
ATOM     77  C   UNL d   1     -15.067  14.381  -0.886  0.00  0.00     0.037 C 
BRANCH  77  78
ATOM     78  C   UNL d   1     -16.377  14.092  -1.628  0.00  0.00     0.024 C 
BRANCH  78  79
ATOM     79  C   UNL d   1     -16.326  14.485  -3.092  0.00  0.00     0.152 C 
BRANCH  79  80
ATOM     80  N   UNL d   1     -15.603  13.480  -3.849  0.00  0.00    -0.268 NA
ATOM     81  C   UNL d   1     -14.563  13.871  -4.486  0.00  0.00     0.143 C 
ATOM     82  N   UNL d   1     -14.001  15.099  -4.527  0.00  0.00    -0.278 NA
ATOM     83  N   UNL d   1     -13.877  13.008  -5.261  0.00  0.00    -0.278 NA
ATOM     84  H   UNL d   1     -14.637  15.877  -4.400  0.00  0.00     0.126 HD
ATOM     85  H   UNL d   1     -13.382  15.248  -5.317  0.00  0.00     0.126 HD
ATOM     86  H   UNL d   1     -14.290  12.077  -5.199  0.00  0.00     0.126 HD
ATOM     87  H   UNL d   1     -13.807  13.299  -6.229  0.00  0.00     0.126 HD
ENDBRANCH  79  80
ENDBRANCH  78  79
ENDBRANCH  77  78
ENDBRANCH  76  77
BRANCH  76  88
ATOM     88  C   UNL d   1     -13.700  12.966   0.877  0.00  0.00     0.243 C 
ATOM     89  O   UNL d   1     -12.505  12.772   1.149  0.00  0.00    -0.271 OA
ATOM     90  N   UNL d   1     -14.614  12.967   1.917  0.00  0.00    -0.337 N 
ATOM     91  C   UNL d   1     -16.047  13.184   1.849  0.00  0.00     0.127 C 
ATOM     92  C   UNL d   1     -14.165  13.043   3.327  0.00  0.00     0.181 C 
ATOM     93  C   UNL d   1     -16.309  14.144   2.992  0.00  0.00     0.022 C 
ATOM     94  C   UNL d   1     -15.350  13.682   4.079  0.00  0.00     0.037 C 
BRANCH  92  95
ATOM     95  C   UNL d   1     -13.797  11.698   3.994  0.00  0.00     0.259 C 
ATOM     96  O   UNL d   1     -13.284  11.621   5.113  0.00  0.00    -0.269 OA
ATOM     97  N   UNL d   1     -13.952  10.578   3.201  0.00  0.00    -0.264 N 
ATOM     98  H   UNL d   1     -14.140  10.685   2.208  0.00  0.00     0.190 HD
BRANCH  97  99
ATOM     99  N   UNL d   1     -13.484   9.359   3.718  0.00  0.00    -0.249 N 
ATOM    100  C   UNL d   1     -14.269   8.292   4.050  0.00  0.00     0.332 C 
ATOM    101  N   UNL d   1     -15.554   8.327   3.643  0.00  0.00    -0.351 N 
ATOM    102  O   UNL d   1     -13.849   7.376   4.746  0.00  0.00    -0.246 OA
ATOM    103  H   UNL d   1     -15.976   9.113   3.180  0.00  0.00     0.160 HD
ATOM    104  H   UNL d   1     -16.171   7.610   3.999  0.00  0.00     0.160 HD
ATOM    105  H   UNL d   1     -12.514   9.344   4.034  0.00  0.00     0.192 HD
ENDBRANCH  97  99
ENDBRANCH  92  95
ENDBRANCH  76  88
ENDBRANCH  74  76
ENDBRANCH  67  72
ENDBRANCH  64  67
ENDBRANCH  62  63
BRANCH  62 106
ATOM    106  C   UNL d   1     -15.547   6.094   0.823  0.00  0.00     0.203 C 
BRANCH 106 107
ATOM    107  O   UNL d   1     -16.755   6.642   0.256  0.00  0.00    -0.379 OA
BRANCH 107 108
ATOM    108  C   UNL d   1     -17.901   5.780   0.053  0.00  0.00     0.050 C 
ATOM    109  C   UNL d   1     -18.473   5.868  -1.362  0.00  0.00     0.045 C 
ATOM    110  C   UNL d   1     -17.419   4.325   0.188  0.00  0.00     0.045 C 
ATOM    111  C   UNL d   1     -18.987   5.993   1.115  0.00  0.00     0.045 C 
ENDBRANCH 107 108
ENDBRANCH 106 107
ENDBRANCH  62 106
ENDBRANCH  59  62
ENDBRANCH   1  58
TORSDOF 35
ENDMDL
MODEL 5
REMARK VINA RESULT:      -6.4      3.736      6.532
REMARK WARNING: 32 MAX_TORS EXCEEDED!!!
REMARK  35 active torsions:
REMARK  status: ('A' for Active; 'I' for Inactive)
REMARK    1  A    between atoms: C_2  and  O_1 
REMARK    2  A    between atoms: CA_3  and  C_2 
REMARK    3  A    between atoms: C_4  and  CA_3 
REMARK    4  A    between atoms: CA_3  and  N_5 
REMARK       I    between atoms: N_6  and  C_4 
REMARK       I    between atoms: N_5  and  C_8 
REMARK    5  A    between atoms: C_9  and  N_6 
REMARK    6  A    between atoms: CA_10  and  C_8 
REMARK    7  A    between atoms: C_9  and  C_13 
REMARK    8  A    between atoms: C_9  and  C_12 
REMARK    9  A    between atoms: CA_10  and  N_15 
REMARK   10  A    between atoms: CA_10  and  CB_14 
REMARK       I    between atoms: N_16  and  C_12 
REMARK   11  A    between atoms: C_13  and  C_18 
REMARK   12  A    between atoms: CB_14  and  CG_19 
REMARK       I    between atoms: N_15  and  C_20 
REMARK   13  A    between atoms: C_21  and  N_16 
REMARK   14  A    between atoms: CA_26  and  C_20 
REMARK   15  A    between atoms: C_28  and  C_21 
REMARK   16  A    between atoms: C_21  and  C_29 
REMARK   17  A    between atoms: CA_26  and  N_35 
REMARK   18  A    between atoms: CA_26  and  CB_36 
REMARK       I    between atoms: N_37  and  C_28 
REMARK   19  A    between atoms: C_29  and  O_39 
REMARK       I    between atoms: N_35  and  C_43 
REMARK   20  A    between atoms: CB_36  and  CG_44 
REMARK   21  A    between atoms: C_45  and  N_37 
REMARK   22  A    between atoms: O_39  and  C_46 
REMARK   23  A    between atoms: C_40  and  O_47 
REMARK   24  A    between atoms: C_43  and  CA_49 
REMARK   25  A    between atoms: C_54  and  C_45 
REMARK   26  A    between atoms: C_45  and  C_53 
REMARK       I    between atoms: C_53  and  N_62 
REMARK   27  A    between atoms: C_64  and  C_54 
REMARK   28  A    between atoms: N_62  and  C_67 
REMARK   29  A    between atoms: C_67  and  C_72 
REMARK   30  A    between atoms: C_67  and  C_71 
REMARK       I    between atoms: C_71  and  N_73 
REMARK   31  A    between atoms: C_72  and  C_75 
REMARK   32  A    between atoms: C_75  and  C_78 
REMARK   33  A    between atoms: C_77  and  C_81 
REMARK   34  A    between atoms: C_78  and  N_82 
REMARK       I    between atoms: C_81  and  N_83 
REMARK   35  A    between atoms: N_83  and  N_86 
REMARK       I    between atoms: C_85  and  N_87 
REMARK       I    between atoms: C_85  and  N_88 
REMARK       I    between atoms: N_86  and  C_89 
REMARK       I    between atoms: C_89  and  N_91 
ROOT
ATOM      1  C   UNL d   1      -8.360  11.230  -3.513  0.00  0.00     0.180 C 
ENDROOT
BRANCH   1   2
ATOM      2  N   UNL d   1      -9.750  10.895  -3.192  0.00  0.00    -0.346 N 
ATOM      3  C   UNL d   1     -10.506  11.259  -2.098  0.00  0.00     0.243 C 
ATOM      4  O   UNL d   1     -10.020  11.719  -1.070  0.00  0.00    -0.271 OA
ATOM      5  H   UNL d   1     -10.292  10.534  -3.976  0.00  0.00     0.163 HD
BRANCH   3   6
ATOM      6  CA  UNL d   1     -12.002  10.816  -2.230  0.00  0.00     0.200 C 
BRANCH   6   7
ATOM      7  C   UNL d   1     -12.846  11.948  -1.587  0.00  0.00     0.199 C 
BRANCH   7   8
ATOM      8  O   UNL d   1     -12.753  11.830  -0.153  0.00  0.00    -0.398 OA
ATOM      9  H   UNL d   1     -11.844  11.551   0.060  0.00  0.00     0.209 HD
ENDBRANCH   7   8
ENDBRANCH   6   7
BRANCH   6  10
ATOM     10  N   UNL d   1     -12.302   9.522  -1.514  0.00  0.00    -0.344 N 
ATOM     11  C   UNL d   1     -11.791   8.291  -1.866  0.00  0.00     0.241 C 
ATOM     12  O   UNL d   1     -10.967   8.203  -2.781  0.00  0.00    -0.271 OA
ATOM     13  H   UNL d   1     -13.077   9.578  -0.869  0.00  0.00     0.163 HD
BRANCH  11  14
ATOM     14  CA  UNL d   1     -12.268   6.980  -1.063  0.00  0.00     0.181 C 
BRANCH  14  15
ATOM     15  N   UNL d   1     -12.959   7.094   0.272  0.00  0.00    -0.346 N 
ATOM     16  C   UNL d   1     -14.280   7.554   0.428  0.00  0.00     0.241 C 
ATOM     17  O   UNL d   1     -14.977   7.938  -0.509  0.00  0.00    -0.271 OA
ATOM     18  H   UNL d   1     -12.504   6.690   1.075  0.00  0.00     0.163 HD
BRANCH  16  19
ATOM     19  CA  UNL d   1     -14.891   7.537   1.862  0.00  0.00     0.182 C 
BRANCH  19  20
ATOM     20  N   UNL d   1     -14.750   8.885   2.402  0.00  0.00    -0.346 N 
ATOM     21  C   UNL d   1     -14.080   9.111   3.586  0.00  0.00     0.241 C 
ATOM     22  O   UNL d   1     -13.725   8.223   4.352  0.00  0.00    -0.271 OA
ATOM     23  H   UNL d   1     -14.631   9.612   1.710  0.00  0.00     0.163 HD
BRANCH  21  24
ATOM     24  CA  UNL d   1     -13.909  10.602   3.880  0.00  0.00     0.177 C 
ATOM     25  C   UNL d   1     -15.108  11.276   4.508  0.00  0.00     0.044 C 
ATOM     26  C   UNL d   1     -14.924  12.726   4.078  0.00  0.00     0.105 C 
ATOM     27  C   UNL d   1     -14.233  12.593   2.754  0.00  0.00     0.218 C 
ATOM     28  O   UNL d   1     -14.159  13.471   1.899  0.00  0.00    -0.274 OA
ATOM     29  N   UNL d   1     -13.679  11.348   2.683  0.00  0.00    -0.348 N 
ATOM     30  H   UNL d   1     -13.127  11.017   1.898  0.00  0.00     0.163 HD
ENDBRANCH  21  24
ENDBRANCH  19  20
BRANCH  19  31
ATOM     31  CB  UNL d   1     -16.280   6.873   2.051  0.00  0.00     0.093 C 
BRANCH  31  32
ATOM     32  CG  UNL d   1     -17.459   7.776   2.197  0.00  0.00     0.030 A 
ATOM     33  CD2 UNL d   1     -18.180   8.541   1.311  0.00  0.00     0.143 A 
ATOM     34  NE2 UNL d   1     -19.229   9.170   1.921  0.00  0.00    -0.254 NA
ATOM     35  CE1 UNL d   1     -19.123   8.850   3.189  0.00  0.00     0.207 A 
ATOM     36  ND1 UNL d   1     -18.057   8.024   3.414  0.00  0.00    -0.353 N 
ATOM     37  HD1 UNL d   1     -17.782   7.640   4.308  0.00  0.00     0.166 HD
ENDBRANCH  31  32
ENDBRANCH  19  31
ENDBRANCH  16  19
ENDBRANCH  14  15
BRANCH  14  38
ATOM     38  CB  UNL d   1     -13.033   6.050  -2.066  0.00  0.00     0.075 C 
BRANCH  38  39
ATOM     39  CG  UNL d   1     -12.695   4.613  -1.816  0.00  0.00    -0.028 C 
ATOM     40  CD1 UNL d   1     -11.889   3.840  -2.627  0.00  0.00     0.096 C 
ATOM     41  NE1 UNL d   1     -12.089   2.531  -2.303  0.00  0.00    -0.365 N 
ATOM     42  CE2 UNL d   1     -12.842   2.429  -1.163  0.00  0.00     0.042 A 
ATOM     43  HE1 UNL d   1     -11.791   1.756  -2.880  0.00  0.00     0.165 HD
ATOM     44  CZ2 UNL d   1     -13.248   1.291  -0.459  0.00  0.00     0.030 A 
ATOM     45  CD2 UNL d   1     -13.230   3.726  -0.812  0.00  0.00    -0.002 A 
ATOM     46  CH2 UNL d   1     -14.049   1.479   0.669  0.00  0.00     0.002 A 
ATOM     47  CZ3 UNL d   1     -14.447   2.752   1.058  0.00  0.00     0.001 A 
ATOM     48  CE3 UNL d   1     -14.073   3.877   0.312  0.00  0.00     0.014 A 
ENDBRANCH  38  39
ENDBRANCH  14  38
ENDBRANCH  11  14
ENDBRANCH   6  10
ENDBRANCH   3   6
ENDBRANCH   1   2
BRANCH   1  49
ATOM     49  C   UNL d   1      -7.476  10.155  -4.174  0.00  0.00     0.073 C 
BRANCH  49  50
ATOM     50  C   UNL d   1      -6.060  10.405  -4.648  0.00  0.00    -0.056 A 
ATOM     51  C   UNL d   1      -4.968  10.612  -3.799  0.00  0.00     0.010 A 
ATOM     52  C   UNL d   1      -3.702  10.912  -4.324  0.00  0.00     0.037 A 
ATOM     53  C   UNL d   1      -3.523  11.002  -5.702  0.00  0.00     0.065 A 
ATOM     54  C   UNL d   1      -4.582  10.785  -6.567  0.00  0.00     0.037 A 
ATOM     55  C   UNL d   1      -5.845  10.502  -6.041  0.00  0.00     0.010 A 
BRANCH  53  56
ATOM     56  O   UNL d   1      -2.317  11.324  -6.248  0.00  0.00    -0.361 OA
ATOM     57  H   UNL d   1      -2.465  11.945  -6.981  0.00  0.00     0.217 HD
ENDBRANCH  53  56
ENDBRANCH  49  50
ENDBRANCH   1  49
BRANCH   1  58
ATOM     58  C   UNL d   1      -8.434  12.651  -4.171  0.00  0.00     0.241 C 
ATOM     59  N   UNL d   1      -8.475  12.757  -5.547  0.00  0.00    -0.344 N 
ATOM     60  H   UNL d   1      -8.208  11.934  -6.074  0.00  0.00     0.163 HD
ATOM     61  O   UNL d   1      -8.421  13.638  -3.429  0.00  0.00    -0.271 OA
BRANCH  59  62
ATOM     62  C   UNL d   1      -8.304  14.054  -6.268  0.00  0.00     0.200 C 
BRANCH  62  63
ATOM     63  C   UNL d   1      -7.137  13.877  -7.319  0.00  0.00     0.243 C 
ATOM     64  N   UNL d   1      -5.946  14.534  -7.072  0.00  0.00    -0.346 N 
ATOM     65  H   UNL d   1      -5.825  14.979  -6.169  0.00  0.00     0.163 HD
ATOM     66  O   UNL d   1      -7.255  13.162  -8.316  0.00  0.00    -0.271 OA
BRANCH  64  67
ATOM     67  C   UNL d   1      -4.744  14.482  -7.986  0.00  0.00     0.177 C 
BRANCH  67  68
ATOM     68  C   UNL d   1      -4.915  15.499  -9.161  0.00  0.00     0.038 C 
BRANCH  68  69
ATOM     69  C   UNL d   1      -5.022  14.956 -10.618  0.00  0.00    -0.020 C 
ATOM     70  C   UNL d   1      -4.212  15.764 -11.631  0.00  0.00     0.009 C 
ATOM     71  C   UNL d   1      -4.587  13.480 -10.691  0.00  0.00     0.009 C 
ENDBRANCH  68  69
ENDBRANCH  67  68
BRANCH  67  72
ATOM     72  C   UNL d   1      -3.445  14.763  -7.158  0.00  0.00     0.241 C 
ATOM     73  O   UNL d   1      -2.568  13.924  -6.970  0.00  0.00    -0.271 OA
ATOM     74  N   UNL d   1      -3.339  16.038  -6.645  0.00  0.00    -0.346 N 
ATOM     75  H   UNL d   1      -4.142  16.661  -6.739  0.00  0.00     0.163 HD
BRANCH  74  76
ATOM     76  C   UNL d   1      -2.169  16.514  -5.879  0.00  0.00     0.176 C 
BRANCH  76  77
ATOM     77  C   UNL d   1      -2.000  18.028  -6.118  0.00  0.00     0.037 C 
BRANCH  77  78
ATOM     78  C   UNL d   1      -0.989  18.433  -7.196  0.00  0.00     0.024 C 
BRANCH  78  79
ATOM     79  C   UNL d   1       0.451  18.275  -6.744  0.00  0.00     0.152 C 
BRANCH  79  80
ATOM     80  N   UNL d   1       1.023  17.075  -7.326  0.00  0.00    -0.268 NA
ATOM     81  C   UNL d   1       1.409  16.164  -6.513  0.00  0.00     0.143 C 
ATOM     82  N   UNL d   1       1.325  16.134  -5.165  0.00  0.00    -0.278 NA
ATOM     83  N   UNL d   1       2.008  15.050  -6.978  0.00  0.00    -0.278 NA
ATOM     84  H   UNL d   1       1.346  17.035  -4.704  0.00  0.00     0.126 HD
ATOM     85  H   UNL d   1       1.955  15.473  -4.723  0.00  0.00     0.126 HD
ATOM     86  H   UNL d   1       2.039  15.068  -7.998  0.00  0.00     0.126 HD
ATOM     87  H   UNL d   1       2.936  14.900  -6.599  0.00  0.00     0.126 HD
ENDBRANCH  79  80
ENDBRANCH  78  79
ENDBRANCH  77  78
ENDBRANCH  76  77
BRANCH  76  88
ATOM     88  C   UNL d   1      -2.258  16.047  -4.388  0.00  0.00     0.243 C 
ATOM     89  O   UNL d   1      -1.246  15.668  -3.778  0.00  0.00    -0.271 OA
ATOM     90  N   UNL d   1      -3.471  16.012  -3.721  0.00  0.00    -0.337 N 
ATOM     91  C   UNL d   1      -4.774  16.415  -4.215  0.00  0.00     0.127 C 
ATOM     92  C   UNL d   1      -3.530  15.828  -2.252  0.00  0.00     0.181 C 
ATOM     93  C   UNL d   1      -5.347  17.226  -3.069  0.00  0.00     0.022 C 
ATOM     94  C   UNL d   1      -4.854  16.495  -1.828  0.00  0.00     0.037 C 
BRANCH  92  95
ATOM     95  C   UNL d   1      -3.507  14.365  -1.753  0.00  0.00     0.259 C 
ATOM     96  O   UNL d   1      -4.518  13.770  -1.372  0.00  0.00    -0.269 OA
ATOM     97  N   UNL d   1      -2.255  13.797  -1.628  0.00  0.00    -0.264 N 
ATOM     98  H   UNL d   1      -1.426  14.381  -1.711  0.00  0.00     0.190 HD
BRANCH  97  99
ATOM     99  N   UNL d   1      -2.184  12.527  -1.034  0.00  0.00    -0.249 N 
ATOM    100  C   UNL d   1      -2.102  12.289   0.308  0.00  0.00     0.332 C 
ATOM    101  N   UNL d   1      -2.332  13.333   1.131  0.00  0.00    -0.351 N 
ATOM    102  O   UNL d   1      -1.765  11.197   0.749  0.00  0.00    -0.246 OA
ATOM    103  H   UNL d   1      -2.487  14.274   0.813  0.00  0.00     0.160 HD
ATOM    104  H   UNL d   1      -2.142  13.198   2.113  0.00  0.00     0.160 HD
ATOM    105  H   UNL d   1      -1.999  11.744  -1.661  0.00  0.00     0.192 HD
ENDBRANCH  97  99
ENDBRANCH  92  95
ENDBRANCH  76  88
ENDBRANCH  74  76
ENDBRANCH  67  72
ENDBRANCH  64  67
ENDBRANCH  62  63
BRANCH  62 106
ATOM    106  C   UNL d   1      -9.596  14.634  -6.946  0.00  0.00     0.203 C 
BRANCH 106 107
ATOM    107  O   UNL d   1     -10.745  14.675  -6.074  0.00  0.00    -0.379 OA
BRANCH 107 108
ATOM    108  C   UNL d   1     -11.927  13.913  -6.417  0.00  0.00     0.050 C 
ATOM    109  C   UNL d   1     -13.192  14.770  -6.489  0.00  0.00     0.045 C 
ATOM    110  C   UNL d   1     -11.737  13.379  -7.848  0.00  0.00     0.045 C 
ATOM    111  C   UNL d   1     -12.123  12.695  -5.506  0.00  0.00     0.045 C 
ENDBRANCH 107 108
ENDBRANCH 106 107
ENDBRANCH  62 106
ENDBRANCH  59  62
ENDBRANCH   1  58
TORSDOF 35
ENDMDL
MODEL 6
REMARK VINA RESULT:      -6.3      5.361     13.854
REMARK WARNING: 32 MAX_TORS EXCEEDED!!!
REMARK  35 active torsions:
REMARK  status: ('A' for Active; 'I' for Inactive)
REMARK    1  A    between atoms: C_2  and  O_1 
REMARK    2  A    between atoms: CA_3  and  C_2 
REMARK    3  A    between atoms: C_4  and  CA_3 
REMARK    4  A    between atoms: CA_3  and  N_5 
REMARK       I    between atoms: N_6  and  C_4 
REMARK       I    between atoms: N_5  and  C_8 
REMARK    5  A    between atoms: C_9  and  N_6 
REMARK    6  A    between atoms: CA_10  and  C_8 
REMARK    7  A    between atoms: C_9  and  C_13 
REMARK    8  A    between atoms: C_9  and  C_12 
REMARK    9  A    between atoms: CA_10  and  N_15 
REMARK   10  A    between atoms: CA_10  and  CB_14 
REMARK       I    between atoms: N_16  and  C_12 
REMARK   11  A    between atoms: C_13  and  C_18 
REMARK   12  A    between atoms: CB_14  and  CG_19 
REMARK       I    between atoms: N_15  and  C_20 
REMARK   13  A    between atoms: C_21  and  N_16 
REMARK   14  A    between atoms: CA_26  and  C_20 
REMARK   15  A    between atoms: C_28  and  C_21 
REMARK   16  A    between atoms: C_21  and  C_29 
REMARK   17  A    between atoms: CA_26  and  N_35 
REMARK   18  A    between atoms: CA_26  and  CB_36 
REMARK       I    between atoms: N_37  and  C_28 
REMARK   19  A    between atoms: C_29  and  O_39 
REMARK       I    between atoms: N_35  and  C_43 
REMARK   20  A    between atoms: CB_36  and  CG_44 
REMARK   21  A    between atoms: C_45  and  N_37 
REMARK   22  A    between atoms: O_39  and  C_46 
REMARK   23  A    between atoms: C_40  and  O_47 
REMARK   24  A    between atoms: C_43  and  CA_49 
REMARK   25  A    between atoms: C_54  and  C_45 
REMARK   26  A    between atoms: C_45  and  C_53 
REMARK       I    between atoms: C_53  and  N_62 
REMARK   27  A    between atoms: C_64  and  C_54 
REMARK   28  A    between atoms: N_62  and  C_67 
REMARK   29  A    between atoms: C_67  and  C_72 
REMARK   30  A    between atoms: C_67  and  C_71 
REMARK       I    between atoms: C_71  and  N_73 
REMARK   31  A    between atoms: C_72  and  C_75 
REMARK   32  A    between atoms: C_75  and  C_78 
REMARK   33  A    between atoms: C_77  and  C_81 
REMARK   34  A    between atoms: C_78  and  N_82 
REMARK       I    between atoms: C_81  and  N_83 
REMARK   35  A    between atoms: N_83  and  N_86 
REMARK       I    between atoms: C_85  and  N_87 
REMARK       I    between atoms: C_85  and  N_88 
REMARK       I    between atoms: N_86  and  C_89 
REMARK       I    between atoms: C_89  and  N_91 
ROOT
ATOM      1  C   UNL d   1     -14.165   5.154  -0.885  0.00  0.00     0.180 C 
ENDROOT
BRANCH   1   2
ATOM      2  N   UNL d   1     -12.960   5.617  -1.578  0.00  0.00    -0.346 N 
ATOM      3  C   UNL d   1     -12.265   5.027  -2.612  0.00  0.00     0.243 C 
ATOM      4  O   UNL d   1     -12.416   3.854  -2.937  0.00  0.00    -0.271 OA
ATOM      5  H   UNL d   1     -12.734   6.599  -1.426  0.00  0.00     0.163 HD
BRANCH   3   6
ATOM      6  CA  UNL d   1     -11.122   5.942  -3.164  0.00  0.00     0.200 C 
BRANCH   6   7
ATOM      7  C   UNL d   1      -9.799   5.387  -2.574  0.00  0.00     0.199 C 
BRANCH   7   8
ATOM      8  O   UNL d   1      -8.756   5.549  -3.555  0.00  0.00    -0.398 OA
ATOM      9  H   UNL d   1      -7.905   5.380  -3.110  0.00  0.00     0.209 HD
ENDBRANCH   7   8
ENDBRANCH   6   7
BRANCH   6  10
ATOM     10  N   UNL d   1     -11.267   7.386  -2.751  0.00  0.00    -0.344 N 
ATOM     11  C   UNL d   1     -10.469   8.418  -3.201  0.00  0.00     0.241 C 
ATOM     12  O   UNL d   1      -9.609   8.203  -4.059  0.00  0.00    -0.271 OA
ATOM     13  H   UNL d   1     -11.868   7.528  -1.952  0.00  0.00     0.163 HD
BRANCH  11  14
ATOM     14  CA  UNL d   1     -10.685   9.897  -2.606  0.00  0.00     0.181 C 
BRANCH  14  15
ATOM     15  N   UNL d   1     -11.887  10.228  -1.759  0.00  0.00    -0.346 N 
ATOM     16  C   UNL d   1     -12.886  11.138  -2.149  0.00  0.00     0.241 C 
ATOM     17  O   UNL d   1     -12.850  11.773  -3.201  0.00  0.00    -0.271 OA
ATOM     18  H   UNL d   1     -12.055   9.668  -0.939  0.00  0.00     0.163 HD
BRANCH  16  19
ATOM     19  CA  UNL d   1     -14.115  11.317  -1.205  0.00  0.00     0.182 C 
BRANCH  19  20
ATOM     20  N   UNL d   1     -13.632  11.969   0.007  0.00  0.00    -0.346 N 
ATOM     21  C   UNL d   1     -14.178  11.676   1.239  0.00  0.00     0.241 C 
ATOM     22  O   UNL d   1     -15.198  11.015   1.396  0.00  0.00    -0.271 OA
ATOM     23  H   UNL d   1     -12.639  12.156   0.025  0.00  0.00     0.163 HD
BRANCH  21  24
ATOM     24  CA  UNL d   1     -13.418  12.345   2.384  0.00  0.00     0.177 C 
ATOM     25  C   UNL d   1     -14.088  13.565   2.975  0.00  0.00     0.044 C 
ATOM     26  C   UNL d   1     -12.904  14.340   3.542  0.00  0.00     0.105 C 
ATOM     27  C   UNL d   1     -11.790  13.969   2.609  0.00  0.00     0.218 C 
ATOM     28  O   UNL d   1     -10.734  14.582   2.483  0.00  0.00    -0.274 OA
ATOM     29  N   UNL d   1     -12.141  12.824   1.955  0.00  0.00    -0.348 N 
ATOM     30  H   UNL d   1     -11.544  12.345   1.288  0.00  0.00     0.163 HD
ENDBRANCH  21  24
ENDBRANCH  19  20
BRANCH  19  31
ATOM     31  CB  UNL d   1     -15.418  11.898  -1.815  0.00  0.00     0.093 C 
BRANCH  31  32
ATOM     32  CG  UNL d   1     -16.434  10.928  -2.317  0.00  0.00     0.030 A 
ATOM     33  CD2 UNL d   1     -17.734  11.057  -2.745  0.00  0.00     0.143 A 
ATOM     34  NE2 UNL d   1     -18.250   9.864  -3.166  0.00  0.00    -0.254 NA
ATOM     35  CE1 UNL d   1     -17.299   8.987  -2.941  0.00  0.00     0.207 A 
ATOM     36  ND1 UNL d   1     -16.186   9.575  -2.408  0.00  0.00    -0.353 N 
ATOM     37  HD1 UNL d   1     -15.326   9.103  -2.162  0.00  0.00     0.166 HD
ENDBRANCH  31  32
ENDBRANCH  19  31
ENDBRANCH  16  19
ENDBRANCH  14  15
BRANCH  14  38
ATOM     38  CB  UNL d   1      -9.335  10.358  -1.953  0.00  0.00     0.075 C 
BRANCH  38  39
ATOM     39  CG  UNL d   1      -8.687  11.425  -2.780  0.00  0.00    -0.028 C 
ATOM     40  CD1 UNL d   1      -9.102  12.741  -2.834  0.00  0.00     0.096 C 
ATOM     41  NE1 UNL d   1      -8.530  13.323  -3.926  0.00  0.00    -0.365 N 
ATOM     42  CE2 UNL d   1      -7.588  12.493  -4.473  0.00  0.00     0.042 A 
ATOM     43  HE1 UNL d   1      -8.832  14.206  -4.315  0.00  0.00     0.165 HD
ATOM     44  CZ2 UNL d   1      -6.740  12.701  -5.566  0.00  0.00     0.030 A 
ATOM     45  CD2 UNL d   1      -7.643  11.289  -3.764  0.00  0.00    -0.002 A 
ATOM     46  CH2 UNL d   1      -5.887  11.658  -5.932  0.00  0.00     0.002 A 
ATOM     47  CZ3 UNL d   1      -5.902  10.449  -5.247  0.00  0.00     0.001 A 
ATOM     48  CE3 UNL d   1      -6.794  10.240  -4.187  0.00  0.00     0.014 A 
ENDBRANCH  38  39
ENDBRANCH  14  38
ENDBRANCH  11  14
ENDBRANCH   6  10
ENDBRANCH   3   6
ENDBRANCH   1   2
BRANCH   1  49
ATOM     49  C   UNL d   1     -14.055   3.938   0.055  0.00  0.00     0.073 C 
BRANCH  49  50
ATOM     50  C   UNL d   1     -15.057   2.803   0.083  0.00  0.00    -0.056 A 
ATOM     51  C   UNL d   1     -14.727   1.464   0.317  0.00  0.00     0.010 A 
ATOM     52  C   UNL d   1     -15.710   0.464   0.251  0.00  0.00     0.037 A 
ATOM     53  C   UNL d   1     -17.027   0.802  -0.048  0.00  0.00     0.065 A 
ATOM     54  C   UNL d   1     -17.386   2.121  -0.268  0.00  0.00     0.037 A 
ATOM     55  C   UNL d   1     -16.403   3.112  -0.216  0.00  0.00     0.010 A 
BRANCH  53  56
ATOM     56  O   UNL d   1     -18.002  -0.144  -0.154  0.00  0.00    -0.361 OA
ATOM     57  H   UNL d   1     -17.834  -0.673  -0.951  0.00  0.00     0.217 HD
ENDBRANCH  53  56
ENDBRANCH  49  50
ENDBRANCH   1  49
BRANCH   1  58
ATOM     58  C   UNL d   1     -14.842   6.461  -0.346  0.00  0.00     0.241 C 
ATOM     59  N   UNL d   1     -15.965   6.361   0.450  0.00  0.00    -0.344 N 
ATOM     60  H   UNL d   1     -16.444   5.469   0.449  0.00  0.00     0.163 HD
ATOM     61  O   UNL d   1     -14.361   7.548  -0.682  0.00  0.00    -0.271 OA
BRANCH  59  62
ATOM     62  C   UNL d   1     -16.815   7.536   0.809  0.00  0.00     0.200 C 
BRANCH  62  63
ATOM     63  C   UNL d   1     -18.169   7.422   0.004  0.00  0.00     0.243 C 
ATOM     64  N   UNL d   1     -18.394   6.262  -0.714  0.00  0.00    -0.346 N 
ATOM     65  H   UNL d   1     -17.755   5.486  -0.578  0.00  0.00     0.163 HD
ATOM     66  O   UNL d   1     -19.020   8.313   0.022  0.00  0.00    -0.271 OA
BRANCH  64  67
ATOM     67  C   UNL d   1     -19.627   6.006  -1.547  0.00  0.00     0.177 C 
BRANCH  67  68
ATOM     68  C   UNL d   1     -19.225   5.407  -2.935  0.00  0.00     0.038 C 
BRANCH  68  69
ATOM     69  C   UNL d   1     -19.538   6.222  -4.226  0.00  0.00    -0.020 C 
ATOM     70  C   UNL d   1     -19.919   5.349  -5.421  0.00  0.00     0.009 C 
ATOM     71  C   UNL d   1     -20.661   7.246  -3.975  0.00  0.00     0.009 C 
ENDBRANCH  68  69
ENDBRANCH  67  68
BRANCH  67  72
ATOM     72  C   UNL d   1     -20.600   5.060  -0.766  0.00  0.00     0.241 C 
ATOM     73  O   UNL d   1     -20.931   5.246   0.402  0.00  0.00    -0.271 OA
ATOM     74  N   UNL d   1     -21.079   3.985  -1.483  0.00  0.00    -0.346 N 
ATOM     75  H   UNL d   1     -20.690   3.818  -2.413  0.00  0.00     0.163 HD
BRANCH  74  76
ATOM     76  C   UNL d   1     -22.043   3.007  -0.941  0.00  0.00     0.176 C 
BRANCH  76  77
ATOM     77  C   UNL d   1     -22.965   2.533  -2.082  0.00  0.00     0.037 C 
BRANCH  77  78
ATOM     78  C   UNL d   1     -23.997   1.460  -1.715  0.00  0.00     0.024 C 
BRANCH  78  79
ATOM     79  C   UNL d   1     -23.857   0.198  -2.546  0.00  0.00     0.152 C 
BRANCH  79  80
ATOM     80  N   UNL d   1     -23.632  -0.943  -1.677  0.00  0.00    -0.268 NA
ATOM     81  C   UNL d   1     -22.478  -1.495  -1.734  0.00  0.00     0.143 C 
ATOM     82  N   UNL d   1     -21.400  -1.143  -2.468  0.00  0.00    -0.278 NA
ATOM     83  N   UNL d   1     -22.218  -2.597  -1.003  0.00  0.00    -0.278 NA
ATOM     84  H   UNL d   1     -21.600  -0.677  -3.344  0.00  0.00     0.126 HD
ATOM     85  H   UNL d   1     -20.716  -1.883  -2.585  0.00  0.00     0.126 HD
ATOM     86  H   UNL d   1     -23.027  -2.837  -0.429  0.00  0.00     0.126 HD
ATOM     87  H   UNL d   1     -21.931  -3.394  -1.559  0.00  0.00     0.126 HD
ENDBRANCH  79  80
ENDBRANCH  78  79
ENDBRANCH  77  78
ENDBRANCH  76  77
BRANCH  76  88
ATOM     88  C   UNL d   1     -21.303   1.891  -0.132  0.00  0.00     0.243 C 
ATOM     89  O   UNL d   1     -20.557   1.081  -0.702  0.00  0.00    -0.271 OA
ATOM     90  N   UNL d   1     -21.489   1.756   1.234  0.00  0.00    -0.337 N 
ATOM     91  C   UNL d   1     -22.294   2.583   2.113  0.00  0.00     0.127 C 
ATOM     92  C   UNL d   1     -20.604   0.885   2.042  0.00  0.00     0.181 C 
ATOM     93  C   UNL d   1     -21.387   2.812   3.306  0.00  0.00     0.022 C 
ATOM     94  C   UNL d   1     -20.654   1.487   3.461  0.00  0.00     0.037 C 
BRANCH  92  95
ATOM     95  C   UNL d   1     -20.998  -0.609   2.102  0.00  0.00     0.259 C 
ATOM     96  O   UNL d   1     -20.420  -1.482   1.451  0.00  0.00    -0.269 OA
ATOM     97  N   UNL d   1     -22.136  -0.897   2.830  0.00  0.00    -0.264 N 
ATOM     98  H   UNL d   1     -22.734  -0.140   3.152  0.00  0.00     0.190 HD
BRANCH  97  99
ATOM     99  N   UNL d   1     -22.610  -2.217   2.781  0.00  0.00    -0.249 N 
ATOM    100  C   UNL d   1     -23.752  -2.620   2.149  0.00  0.00     0.332 C 
ATOM    101  N   UNL d   1     -24.344  -1.730   1.327  0.00  0.00    -0.351 N 
ATOM    102  O   UNL d   1     -24.258  -3.713   2.370  0.00  0.00    -0.246 OA
ATOM    103  H   UNL d   1     -24.035  -0.780   1.212  0.00  0.00     0.160 HD
ATOM    104  H   UNL d   1     -25.255  -1.972   0.964  0.00  0.00     0.160 HD
ATOM    105  H   UNL d   1     -22.165  -2.882   3.414  0.00  0.00     0.192 HD
ENDBRANCH  97  99
ENDBRANCH  92  95
ENDBRANCH  76  88
ENDBRANCH  74  76
ENDBRANCH  67  72
ENDBRANCH  64  67
ENDBRANCH  62  63
BRANCH  62 106
ATOM    106  C   UNL d   1     -17.082   7.742   2.343  0.00  0.00     0.203 C 
BRANCH 106 107
ATOM    107  O   UNL d   1     -16.170   7.019   3.197  0.00  0.00    -0.379 OA
BRANCH 107 108
ATOM    108  C   UNL d   1     -15.182   7.750   3.963  0.00  0.00     0.050 C 
ATOM    109  C   UNL d   1     -13.947   8.127   3.143  0.00  0.00     0.045 C 
ATOM    110  C   UNL d   1     -15.808   9.097   4.365  0.00  0.00     0.045 C 
ATOM    111  C   UNL d   1     -14.798   7.028   5.261  0.00  0.00     0.045 C 
ENDBRANCH 107 108
ENDBRANCH 106 107
ENDBRANCH  62 106
ENDBRANCH  59  62
ENDBRANCH   1  58
TORSDOF 35
ENDMDL
MODEL 7
REMARK VINA RESULT:      -6.3      4.385      7.517
REMARK WARNING: 32 MAX_TORS EXCEEDED!!!
REMARK  35 active torsions:
REMARK  status: ('A' for Active; 'I' for Inactive)
REMARK    1  A    between atoms: C_2  and  O_1 
REMARK    2  A    between atoms: CA_3  and  C_2 
REMARK    3  A    between atoms: C_4  and  CA_3 
REMARK    4  A    between atoms: CA_3  and  N_5 
REMARK       I    between atoms: N_6  and  C_4 
REMARK       I    between atoms: N_5  and  C_8 
REMARK    5  A    between atoms: C_9  and  N_6 
REMARK    6  A    between atoms: CA_10  and  C_8 
REMARK    7  A    between atoms: C_9  and  C_13 
REMARK    8  A    between atoms: C_9  and  C_12 
REMARK    9  A    between atoms: CA_10  and  N_15 
REMARK   10  A    between atoms: CA_10  and  CB_14 
REMARK       I    between atoms: N_16  and  C_12 
REMARK   11  A    between atoms: C_13  and  C_18 
REMARK   12  A    between atoms: CB_14  and  CG_19 
REMARK       I    between atoms: N_15  and  C_20 
REMARK   13  A    between atoms: C_21  and  N_16 
REMARK   14  A    between atoms: CA_26  and  C_20 
REMARK   15  A    between atoms: C_28  and  C_21 
REMARK   16  A    between atoms: C_21  and  C_29 
REMARK   17  A    between atoms: CA_26  and  N_35 
REMARK   18  A    between atoms: CA_26  and  CB_36 
REMARK       I    between atoms: N_37  and  C_28 
REMARK   19  A    between atoms: C_29  and  O_39 
REMARK       I    between atoms: N_35  and  C_43 
REMARK   20  A    between atoms: CB_36  and  CG_44 
REMARK   21  A    between atoms: C_45  and  N_37 
REMARK   22  A    between atoms: O_39  and  C_46 
REMARK   23  A    between atoms: C_40  and  O_47 
REMARK   24  A    between atoms: C_43  and  CA_49 
REMARK   25  A    between atoms: C_54  and  C_45 
REMARK   26  A    between atoms: C_45  and  C_53 
REMARK       I    between atoms: C_53  and  N_62 
REMARK   27  A    between atoms: C_64  and  C_54 
REMARK   28  A    between atoms: N_62  and  C_67 
REMARK   29  A    between atoms: C_67  and  C_72 
REMARK   30  A    between atoms: C_67  and  C_71 
REMARK       I    between atoms: C_71  and  N_73 
REMARK   31  A    between atoms: C_72  and  C_75 
REMARK   32  A    between atoms: C_75  and  C_78 
REMARK   33  A    between atoms: C_77  and  C_81 
REMARK   34  A    between atoms: C_78  and  N_82 
REMARK       I    between atoms: C_81  and  N_83 
REMARK   35  A    between atoms: N_83  and  N_86 
REMARK       I    between atoms: C_85  and  N_87 
REMARK       I    between atoms: C_85  and  N_88 
REMARK       I    between atoms: N_86  and  C_89 
REMARK       I    between atoms: C_89  and  N_91 
ROOT
ATOM      1  C   UNL d   1      -9.489   8.953  -3.473  0.00  0.00     0.180 C 
ENDROOT
BRANCH   1   2
ATOM      2  N   UNL d   1     -10.839   9.281  -3.007  0.00  0.00    -0.346 N 
ATOM      3  C   UNL d   1     -11.269  10.359  -2.263  0.00  0.00     0.243 C 
ATOM      4  O   UNL d   1     -10.506  11.090  -1.639  0.00  0.00    -0.271 OA
ATOM      5  H   UNL d   1     -11.586   8.769  -3.475  0.00  0.00     0.163 HD
BRANCH   3   6
ATOM      6  CA  UNL d   1     -12.827  10.408  -2.124  0.00  0.00     0.200 C 
BRANCH   6   7
ATOM      7  C   UNL d   1     -13.190  11.889  -1.844  0.00  0.00     0.199 C 
BRANCH   7   8
ATOM      8  O   UNL d   1     -12.617  12.705  -2.886  0.00  0.00    -0.398 OA
ATOM      9  H   UNL d   1     -12.131  12.113  -3.488  0.00  0.00     0.209 HD
ENDBRANCH   7   8
ENDBRANCH   6   7
BRANCH   6  10
ATOM     10  N   UNL d   1     -13.347   9.559  -0.989  0.00  0.00    -0.344 N 
ATOM     11  C   UNL d   1     -13.678   8.225  -1.092  0.00  0.00     0.241 C 
ATOM     12  O   UNL d   1     -13.482   7.620  -2.150  0.00  0.00    -0.271 OA
ATOM     13  H   UNL d   1     -13.639  10.087  -0.179  0.00  0.00     0.163 HD
BRANCH  11  14
ATOM     14  CA  UNL d   1     -14.305   7.468   0.182  0.00  0.00     0.181 C 
BRANCH  14  15
ATOM     15  N   UNL d   1     -14.543   8.195   1.481  0.00  0.00    -0.346 N 
ATOM     16  C   UNL d   1     -14.571   7.559   2.735  0.00  0.00     0.241 C 
ATOM     17  O   UNL d   1     -14.440   6.345   2.881  0.00  0.00    -0.271 OA
ATOM     18  H   UNL d   1     -14.542   9.203   1.464  0.00  0.00     0.163 HD
BRANCH  16  19
ATOM     19  CA  UNL d   1     -14.744   8.454   4.000  0.00  0.00     0.182 C 
BRANCH  19  20
ATOM     20  N   UNL d   1     -15.116   7.571   5.100  0.00  0.00    -0.346 N 
ATOM     21  C   UNL d   1     -16.195   7.858   5.909  0.00  0.00     0.241 C 
ATOM     22  O   UNL d   1     -16.795   8.928   5.897  0.00  0.00    -0.271 OA
ATOM     23  H   UNL d   1     -14.978   6.586   4.923  0.00  0.00     0.163 HD
BRANCH  21  24
ATOM     24  CA  UNL d   1     -16.503   6.726   6.889  0.00  0.00     0.177 C 
ATOM     25  C   UNL d   1     -17.026   7.165   8.238  0.00  0.00     0.044 C 
ATOM     26  C   UNL d   1     -16.613   6.004   9.136  0.00  0.00     0.105 C 
ATOM     27  C   UNL d   1     -15.354   5.514   8.485  0.00  0.00     0.218 C 
ATOM     28  O   UNL d   1     -14.509   4.803   9.019  0.00  0.00    -0.274 OA
ATOM     29  N   UNL d   1     -15.330   5.970   7.200  0.00  0.00    -0.348 N 
ATOM     30  H   UNL d   1     -14.596   5.751   6.533  0.00  0.00     0.163 HD
ENDBRANCH  21  24
ENDBRANCH  19  20
BRANCH  19  31
ATOM     31  CB  UNL d   1     -13.634   9.493   4.309  0.00  0.00     0.093 C 
BRANCH  31  32
ATOM     32  CG  UNL d   1     -14.017  10.935   4.287  0.00  0.00     0.030 A 
ATOM     33  CD2 UNL d   1     -13.589  12.037   4.987  0.00  0.00     0.143 A 
ATOM     34  NE2 UNL d   1     -14.216  13.178   4.569  0.00  0.00    -0.254 NA
ATOM     35  CE1 UNL d   1     -15.074  12.777   3.660  0.00  0.00     0.207 A 
ATOM     36  ND1 UNL d   1     -15.008  11.426   3.465  0.00  0.00    -0.353 N 
ATOM     37  HD1 UNL d   1     -15.565  10.894   2.809  0.00  0.00     0.166 HD
ENDBRANCH  31  32
ENDBRANCH  19  31
ENDBRANCH  16  19
ENDBRANCH  14  15
BRANCH  14  38
ATOM     38  CB  UNL d   1     -15.561   6.662  -0.303  0.00  0.00     0.075 C 
BRANCH  38  39
ATOM     39  CG  UNL d   1     -15.379   5.198  -0.047  0.00  0.00    -0.028 C 
ATOM     40  CD1 UNL d   1     -14.255   4.473  -0.385  0.00  0.00     0.096 C 
ATOM     41  NE1 UNL d   1     -14.572   3.148  -0.337  0.00  0.00    -0.365 N 
ATOM     42  CE2 UNL d   1     -15.808   2.972   0.226  0.00  0.00     0.042 A 
ATOM     43  HE1 UNL d   1     -14.003   2.417  -0.743  0.00  0.00     0.165 HD
ATOM     44  CZ2 UNL d   1     -16.503   1.791   0.506  0.00  0.00     0.030 A 
ATOM     45  CD2 UNL d   1     -16.344   4.246   0.442  0.00  0.00    -0.002 A 
ATOM     46  CH2 UNL d   1     -17.779   1.906   1.062  0.00  0.00     0.002 A 
ATOM     47  CZ3 UNL d   1     -18.343   3.153   1.302  0.00  0.00     0.001 A 
ATOM     48  CE3 UNL d   1     -17.654   4.325   0.969  0.00  0.00     0.014 A 
ENDBRANCH  38  39
ENDBRANCH  14  38
ENDBRANCH  11  14
ENDBRANCH   6  10
ENDBRANCH   3   6
ENDBRANCH   1   2
BRANCH   1  49
ATOM     49  C   UNL d   1      -9.182   7.498  -3.879  0.00  0.00     0.073 C 
BRANCH  49  50
ATOM     50  C   UNL d   1     -10.016   6.310  -3.447  0.00  0.00    -0.056 A 
ATOM     51  C   UNL d   1     -10.388   6.045  -2.125  0.00  0.00     0.010 A 
ATOM     52  C   UNL d   1     -11.099   4.879  -1.804  0.00  0.00     0.037 A 
ATOM     53  C   UNL d   1     -11.442   3.975  -2.805  0.00  0.00     0.065 A 
ATOM     54  C   UNL d   1     -11.103   4.219  -4.125  0.00  0.00     0.037 A 
ATOM     55  C   UNL d   1     -10.382   5.374  -4.440  0.00  0.00     0.010 A 
BRANCH  53  56
ATOM     56  O   UNL d   1     -12.103   2.815  -2.527  0.00  0.00    -0.361 OA
ATOM     57  H   UNL d   1     -11.836   2.512  -1.644  0.00  0.00     0.217 HD
ENDBRANCH  53  56
ENDBRANCH  49  50
ENDBRANCH   1  49
BRANCH   1  58
ATOM     58  C   UNL d   1      -9.118  10.105  -4.468  0.00  0.00     0.241 C 
ATOM     59  N   UNL d   1      -8.236  11.087  -4.066  0.00  0.00    -0.344 N 
ATOM     60  H   UNL d   1      -8.059  11.159  -3.072  0.00  0.00     0.163 HD
ATOM     61  O   UNL d   1      -9.659  10.112  -5.579  0.00  0.00    -0.271 OA
BRANCH  59  62
ATOM     62  C   UNL d   1      -8.009  12.343  -4.842  0.00  0.00     0.200 C 
BRANCH  62  63
ATOM     63  C   UNL d   1      -8.298  13.567  -3.885  0.00  0.00     0.243 C 
ATOM     64  N   UNL d   1      -7.295  13.950  -3.014  0.00  0.00    -0.346 N 
ATOM     65  H   UNL d   1      -6.379  13.529  -3.125  0.00  0.00     0.163 HD
ATOM     66  O   UNL d   1      -9.361  14.187  -3.916  0.00  0.00    -0.271 OA
BRANCH  64  67
ATOM     67  C   UNL d   1      -7.419  15.086  -2.025  0.00  0.00     0.177 C 
BRANCH  67  68
ATOM     68  C   UNL d   1      -7.837  14.536  -0.622  0.00  0.00     0.038 C 
BRANCH  68  69
ATOM     69  C   UNL d   1      -9.032  15.203   0.123  0.00  0.00    -0.020 C 
ATOM     70  C   UNL d   1      -8.604  16.080   1.300  0.00  0.00     0.009 C 
ATOM     71  C   UNL d   1      -9.886  16.045  -0.844  0.00  0.00     0.009 C 
ENDBRANCH  68  69
ENDBRANCH  67  68
BRANCH  67  72
ATOM     72  C   UNL d   1      -6.068  15.874  -1.961  0.00  0.00     0.241 C 
ATOM     73  O   UNL d   1      -5.932  16.933  -1.354  0.00  0.00    -0.271 OA
ATOM     74  N   UNL d   1      -5.016  15.295  -2.636  0.00  0.00    -0.346 N 
ATOM     75  H   UNL d   1      -5.209  14.473  -3.211  0.00  0.00     0.163 HD
BRANCH  74  76
ATOM     76  C   UNL d   1      -3.650  15.858  -2.655  0.00  0.00     0.176 C 
BRANCH  76  77
ATOM     77  C   UNL d   1      -2.739  14.980  -1.774  0.00  0.00     0.037 C 
BRANCH  77  78
ATOM     78  C   UNL d   1      -1.600  15.705  -1.048  0.00  0.00     0.024 C 
BRANCH  78  79
ATOM     79  C   UNL d   1      -0.275  15.608  -1.782  0.00  0.00     0.152 C 
BRANCH  79  80
ATOM     80  N   UNL d   1      -0.144  16.714  -2.713  0.00  0.00    -0.268 NA
ATOM     81  C   UNL d   1       0.797  16.634  -3.578  0.00  0.00     0.143 C 
ATOM     82  N   UNL d   1       1.682  15.634  -3.785  0.00  0.00    -0.278 NA
ATOM     83  N   UNL d   1       1.020  17.651  -4.434  0.00  0.00    -0.278 NA
ATOM     84  H   UNL d   1       1.919  15.083  -2.969  0.00  0.00     0.126 HD
ATOM     85  H   UNL d   1       2.509  15.910  -4.303  0.00  0.00     0.126 HD
ATOM     86  H   UNL d   1       0.327  18.387  -4.291  0.00  0.00     0.126 HD
ATOM     87  H   UNL d   1       1.957  18.031  -4.377  0.00  0.00     0.126 HD
ENDBRANCH  79  80
ENDBRANCH  78  79
ENDBRANCH  77  78
ENDBRANCH  76  77
BRANCH  76  88
ATOM     88  C   UNL d   1      -3.174  16.104  -4.125  0.00  0.00     0.243 C 
ATOM     89  O   UNL d   1      -2.480  15.263  -4.718  0.00  0.00    -0.271 OA
ATOM     90  N   UNL d   1      -3.484  17.278  -4.789  0.00  0.00    -0.337 N 
ATOM     91  C   UNL d   1      -4.285  18.390  -4.313  0.00  0.00     0.127 C 
ATOM     92  C   UNL d   1      -3.268  17.409  -6.249  0.00  0.00     0.181 C 
ATOM     93  C   UNL d   1      -5.185  18.703  -5.493  0.00  0.00     0.022 C 
ATOM     94  C   UNL d   1      -4.289  18.472  -6.701  0.00  0.00     0.037 C 
BRANCH  92  95
ATOM     95  C   UNL d   1      -1.849  17.840  -6.687  0.00  0.00     0.259 C 
ATOM     96  O   UNL d   1      -1.538  19.015  -6.892  0.00  0.00    -0.269 OA
ATOM     97  N   UNL d   1      -0.974  16.810  -6.970  0.00  0.00    -0.264 N 
ATOM     98  H   UNL d   1      -1.321  15.856  -7.032  0.00  0.00     0.190 HD
BRANCH  97  99
ATOM     99  N   UNL d   1       0.271  17.160  -7.515  0.00  0.00    -0.249 N 
ATOM    100  C   UNL d   1       1.423  16.441  -7.372  0.00  0.00     0.332 C 
ATOM    101  N   UNL d   1       1.310  15.196  -6.865  0.00  0.00    -0.351 N 
ATOM    102  O   UNL d   1       2.520  16.925  -7.625  0.00  0.00    -0.246 OA
ATOM    103  H   UNL d   1       0.448  14.804  -6.527  0.00  0.00     0.160 HD
ATOM    104  H   UNL d   1       2.165  14.713  -6.632  0.00  0.00     0.160 HD
ATOM    105  H   UNL d   1       0.353  18.107  -7.886  0.00  0.00     0.192 HD
ENDBRANCH  97  99
ENDBRANCH  92  95
ENDBRANCH  76  88
ENDBRANCH  74  76
ENDBRANCH  67  72
ENDBRANCH  64  67
ENDBRANCH  62  63
BRANCH  62 106
ATOM    106  C   UNL d   1      -6.601  12.478  -5.526  0.00  0.00     0.203 C 
BRANCH 106 107
ATOM    107  O   UNL d   1      -5.715  11.369  -5.262  0.00  0.00    -0.379 OA
BRANCH 107 108
ATOM    108  C   UNL d   1      -4.289  11.605  -5.167  0.00  0.00     0.050 C 
ATOM    109  C   UNL d   1      -3.454  10.402  -5.609  0.00  0.00     0.045 C 
ATOM    110  C   UNL d   1      -3.934  12.715  -6.172  0.00  0.00     0.045 C 
ATOM    111  C   UNL d   1      -3.870  12.104  -3.779  0.00  0.00     0.045 C 
ENDBRANCH 107 108
ENDBRANCH 106 107
ENDBRANCH  62 106
ENDBRANCH  59  62
ENDBRANCH   1  58
TORSDOF 35
ENDMDL
MODEL 8
REMARK VINA RESULT:      -6.2     17.036     22.863
REMARK WARNING: 32 MAX_TORS EXCEEDED!!!
REMARK  35 active torsions:
REMARK  status: ('A' for Active; 'I' for Inactive)
REMARK    1  A    between atoms: C_2  and  O_1 
REMARK    2  A    between atoms: CA_3  and  C_2 
REMARK    3  A    between atoms: C_4  and  CA_3 
REMARK    4  A    between atoms: CA_3  and  N_5 
REMARK       I    between atoms: N_6  and  C_4 
REMARK       I    between atoms: N_5  and  C_8 
REMARK    5  A    between atoms: C_9  and  N_6 
REMARK    6  A    between atoms: CA_10  and  C_8 
REMARK    7  A    between atoms: C_9  and  C_13 
REMARK    8  A    between atoms: C_9  and  C_12 
REMARK    9  A    between atoms: CA_10  and  N_15 
REMARK   10  A    between atoms: CA_10  and  CB_14 
REMARK       I    between atoms: N_16  and  C_12 
REMARK   11  A    between atoms: C_13  and  C_18 
REMARK   12  A    between atoms: CB_14  and  CG_19 
REMARK       I    between atoms: N_15  and  C_20 
REMARK   13  A    between atoms: C_21  and  N_16 
REMARK   14  A    between atoms: CA_26  and  C_20 
REMARK   15  A    between atoms: C_28  and  C_21 
REMARK   16  A    between atoms: C_21  and  C_29 
REMARK   17  A    between atoms: CA_26  and  N_35 
REMARK   18  A    between atoms: CA_26  and  CB_36 
REMARK       I    between atoms: N_37  and  C_28 
REMARK   19  A    between atoms: C_29  and  O_39 
REMARK       I    between atoms: N_35  and  C_43 
REMARK   20  A    between atoms: CB_36  and  CG_44 
REMARK   21  A    between atoms: C_45  and  N_37 
REMARK   22  A    between atoms: O_39  and  C_46 
REMARK   23  A    between atoms: C_40  and  O_47 
REMARK   24  A    between atoms: C_43  and  CA_49 
REMARK   25  A    between atoms: C_54  and  C_45 
REMARK   26  A    between atoms: C_45  and  C_53 
REMARK       I    between atoms: C_53  and  N_62 
REMARK   27  A    between atoms: C_64  and  C_54 
REMARK   28  A    between atoms: N_62  and  C_67 
REMARK   29  A    between atoms: C_67  and  C_72 
REMARK   30  A    between atoms: C_67  and  C_71 
REMARK       I    between atoms: C_71  and  N_73 
REMARK   31  A    between atoms: C_72  and  C_75 
REMARK   32  A    between atoms: C_75  and  C_78 
REMARK   33  A    between atoms: C_77  and  C_81 
REMARK   34  A    between atoms: C_78  and  N_82 
REMARK       I    between atoms: C_81  and  N_83 
REMARK   35  A    between atoms: N_83  and  N_86 
REMARK       I    between atoms: C_85  and  N_87 
REMARK       I    between atoms: C_85  and  N_88 
REMARK       I    between atoms: N_86  and  C_89 
REMARK       I    between atoms: C_89  and  N_91 
ROOT
ATOM      1  C   UNL d   1       9.388   3.385   1.043  0.00  0.00     0.180 C 
ENDROOT
BRANCH   1   2
ATOM      2  N   UNL d   1       9.239   4.718   1.633  0.00  0.00    -0.346 N 
ATOM      3  C   UNL d   1       8.090   5.430   1.904  0.00  0.00     0.243 C 
ATOM      4  O   UNL d   1       6.996   5.143   1.431  0.00  0.00    -0.271 OA
ATOM      5  H   UNL d   1      10.072   5.071   2.102  0.00  0.00     0.163 HD
BRANCH   3   6
ATOM      6  CA  UNL d   1       8.377   6.754   2.688  0.00  0.00     0.200 C 
BRANCH   6   7
ATOM      7  C   UNL d   1       9.495   6.417   3.710  0.00  0.00     0.199 C 
BRANCH   7   8
ATOM      8  O   UNL d   1       8.996   5.419   4.622  0.00  0.00    -0.398 OA
ATOM      9  H   UNL d   1       9.095   5.771   5.525  0.00  0.00     0.209 HD
ENDBRANCH   7   8
ENDBRANCH   6   7
BRANCH   6  10
ATOM     10  N   UNL d   1       7.175   7.271   3.439  0.00  0.00    -0.344 N 
ATOM     11  C   UNL d   1       6.776   8.590   3.474  0.00  0.00     0.241 C 
ATOM     12  O   UNL d   1       7.372   9.433   2.798  0.00  0.00    -0.271 OA
ATOM     13  H   UNL d   1       6.785   6.611   4.097  0.00  0.00     0.163 HD
BRANCH  11  14
ATOM     14  CA  UNL d   1       5.521   9.010   4.390  0.00  0.00     0.181 C 
BRANCH  14  15
ATOM     15  N   UNL d   1       5.638   9.066   5.892  0.00  0.00    -0.346 N 
ATOM     16  C   UNL d   1       4.869   8.273   6.762  0.00  0.00     0.241 C 
ATOM     17  O   UNL d   1       4.006   7.486   6.376  0.00  0.00    -0.271 OA
ATOM     18  H   UNL d   1       6.400   9.594   6.287  0.00  0.00     0.163 HD
BRANCH  16  19
ATOM     19  CA  UNL d   1       5.159   8.379   8.291  0.00  0.00     0.182 C 
BRANCH  19  20
ATOM     20  N   UNL d   1       4.507   7.242   8.930  0.00  0.00    -0.346 N 
ATOM     21  C   UNL d   1       3.592   7.425   9.946  0.00  0.00     0.241 C 
ATOM     22  O   UNL d   1       3.397   8.498  10.507  0.00  0.00    -0.271 OA
ATOM     23  H   UNL d   1       4.297   6.468   8.315  0.00  0.00     0.163 HD
BRANCH  21  24
ATOM     24  CA  UNL d   1       2.913   6.118  10.357  0.00  0.00     0.177 C 
ATOM     25  C   UNL d   1       2.020   5.498   9.307  0.00  0.00     0.044 C 
ATOM     26  C   UNL d   1       1.042   4.691  10.153  0.00  0.00     0.105 C 
ATOM     27  C   UNL d   1       0.958   5.493  11.417  0.00  0.00     0.218 C 
ATOM     28  O   UNL d   1       0.070   5.402  12.259  0.00  0.00    -0.274 OA
ATOM     29  N   UNL d   1       2.049   6.310  11.480  0.00  0.00    -0.348 N 
ATOM     30  H   UNL d   1       2.246   6.935  12.255  0.00  0.00     0.163 HD
ENDBRANCH  21  24
ENDBRANCH  19  20
BRANCH  19  31
ATOM     31  CB  UNL d   1       6.620   8.660   8.733  0.00  0.00     0.093 C 
BRANCH  31  32
ATOM     32  CG  UNL d   1       7.633   7.596   8.471  0.00  0.00     0.030 A 
ATOM     33  CD2 UNL d   1       8.442   7.305   7.399  0.00  0.00     0.143 A 
ATOM     34  NE2 UNL d   1       9.258   6.239   7.655  0.00  0.00    -0.254 NA
ATOM     35  CE1 UNL d   1       8.914   5.830   8.854  0.00  0.00     0.207 A 
ATOM     36  ND1 UNL d   1       7.921   6.605   9.385  0.00  0.00    -0.353 N 
ATOM     37  HD1 UNL d   1       7.502   6.489  10.298  0.00  0.00     0.166 HD
ENDBRANCH  31  32
ENDBRANCH  19  31
ENDBRANCH  16  19
ENDBRANCH  14  15
BRANCH  14  38
ATOM     38  CB  UNL d   1       4.889  10.309   3.780  0.00  0.00     0.075 C 
BRANCH  38  39
ATOM     39  CG  UNL d   1       3.918   9.962   2.694  0.00  0.00    -0.028 C 
ATOM     40  CD1 UNL d   1       4.240   9.837   1.358  0.00  0.00     0.096 C 
ATOM     41  NE1 UNL d   1       3.085   9.873   0.636  0.00  0.00    -0.365 N 
ATOM     42  CE2 UNL d   1       1.998   9.806   1.467  0.00  0.00     0.042 A 
ATOM     43  HE1 UNL d   1       3.051  10.016  -0.364  0.00  0.00     0.165 HD
ATOM     44  CZ2 UNL d   1       0.635   9.773   1.155  0.00  0.00     0.030 A 
ATOM     45  CD2 UNL d   1       2.483   9.842   2.778  0.00  0.00    -0.002 A 
ATOM     46  CH2 UNL d   1      -0.272   9.736   2.216  0.00  0.00     0.002 A 
ATOM     47  CZ3 UNL d   1       0.170   9.759   3.534  0.00  0.00     0.001 A 
ATOM     48  CE3 UNL d   1       1.536   9.844   3.828  0.00  0.00     0.014 A 
ENDBRANCH  38  39
ENDBRANCH  14  38
ENDBRANCH  11  14
ENDBRANCH   6  10
ENDBRANCH   3   6
ENDBRANCH   1   2
BRANCH   1  49
ATOM     49  C   UNL d   1      10.196   3.242  -0.261  0.00  0.00     0.073 C 
BRANCH  49  50
ATOM     50  C   UNL d   1      11.703   3.379  -0.338  0.00  0.00    -0.056 A 
ATOM     51  C   UNL d   1      12.368   4.453  -0.938  0.00  0.00     0.010 A 
ATOM     52  C   UNL d   1      13.769   4.463  -1.030  0.00  0.00     0.037 A 
ATOM     53  C   UNL d   1      14.507   3.398  -0.519  0.00  0.00     0.065 A 
ATOM     54  C   UNL d   1      13.876   2.331   0.096  0.00  0.00     0.037 A 
ATOM     55  C   UNL d   1      12.482   2.316   0.173  0.00  0.00     0.010 A 
BRANCH  53  56
ATOM     56  O   UNL d   1      15.866   3.356  -0.620  0.00  0.00    -0.361 OA
ATOM     57  H   UNL d   1      16.101   2.876  -1.431  0.00  0.00     0.217 HD
ENDBRANCH  53  56
ENDBRANCH  49  50
ENDBRANCH   1  49
BRANCH   1  58
ATOM     58  C   UNL d   1       9.740   2.451   2.251  0.00  0.00     0.241 C 
ATOM     59  N   UNL d   1       9.925   3.004   3.502  0.00  0.00    -0.344 N 
ATOM     60  H   UNL d   1      10.068   4.006   3.538  0.00  0.00     0.163 HD
ATOM     61  O   UNL d   1       9.873   1.242   2.034  0.00  0.00    -0.271 OA
BRANCH  59  62
ATOM     62  C   UNL d   1      10.493   2.241   4.653  0.00  0.00     0.200 C 
BRANCH  62  63
ATOM     63  C   UNL d   1       9.334   1.367   5.278  0.00  0.00     0.243 C 
ATOM     64  N   UNL d   1       9.625   0.636   6.415  0.00  0.00    -0.346 N 
ATOM     65  H   UNL d   1      10.514   0.801   6.874  0.00  0.00     0.163 HD
ATOM     66  O   UNL d   1       8.199   1.345   4.802  0.00  0.00    -0.271 OA
BRANCH  64  67
ATOM     67  C   UNL d   1       8.636  -0.261   7.122  0.00  0.00     0.177 C 
BRANCH  67  68
ATOM     68  C   UNL d   1       9.380  -1.461   7.793  0.00  0.00     0.038 C 
BRANCH  68  69
ATOM     69  C   UNL d   1       9.328  -2.859   7.106  0.00  0.00    -0.020 C 
ATOM     70  C   UNL d   1      10.672  -3.587   7.102  0.00  0.00     0.009 C 
ATOM     71  C   UNL d   1       8.271  -3.762   7.769  0.00  0.00     0.009 C 
ENDBRANCH  68  69
ENDBRANCH  67  68
BRANCH  67  72
ATOM     72  C   UNL d   1       7.823   0.576   8.166  0.00  0.00     0.241 C 
ATOM     73  O   UNL d   1       8.175   1.683   8.565  0.00  0.00    -0.271 OA
ATOM     74  N   UNL d   1       6.662  -0.011   8.617  0.00  0.00    -0.346 N 
ATOM     75  H   UNL d   1       6.471  -0.974   8.335  0.00  0.00     0.163 HD
BRANCH  74  76
ATOM     76  C   UNL d   1       5.733   0.638   9.565  0.00  0.00     0.176 C 
BRANCH  76  77
ATOM     77  C   UNL d   1       4.621   1.345   8.765  0.00  0.00     0.037 C 
BRANCH  77  78
ATOM     78  C   UNL d   1       4.383   2.822   9.101  0.00  0.00     0.024 C 
BRANCH  78  79
ATOM     79  C   UNL d   1       5.573   3.702   8.767  0.00  0.00     0.152 C 
BRANCH  79  80
ATOM     80  N   UNL d   1       5.270   4.525   7.610  0.00  0.00    -0.268 NA
ATOM     81  C   UNL d   1       6.136   4.537   6.666  0.00  0.00     0.143 C 
ATOM     82  N   UNL d   1       7.296   3.851   6.564  0.00  0.00    -0.278 NA
ATOM     83  N   UNL d   1       5.953   5.326   5.589  0.00  0.00    -0.278 NA
ATOM     84  H   UNL d   1       7.749   3.624   7.441  0.00  0.00     0.126 HD
ATOM     85  H   UNL d   1       7.951   4.239   5.894  0.00  0.00     0.126 HD
ATOM     86  H   UNL d   1       5.060   5.816   5.661  0.00  0.00     0.126 HD
ATOM     87  H   UNL d   1       6.707   5.987   5.437  0.00  0.00     0.126 HD
ENDBRANCH  79  80
ENDBRANCH  78  79
ENDBRANCH  77  78
ENDBRANCH  76  77
BRANCH  76  88
ATOM     88  C   UNL d   1       5.268  -0.374  10.663  0.00  0.00     0.243 C 
ATOM     89  O   UNL d   1       5.156  -1.584  10.408  0.00  0.00    -0.271 OA
ATOM     90  N   UNL d   1       4.937   0.056  11.937  0.00  0.00    -0.337 N 
ATOM     91  C   UNL d   1       5.001   1.404  12.470  0.00  0.00     0.127 C 
ATOM     92  C   UNL d   1       4.752  -0.910  13.045  0.00  0.00     0.181 C 
ATOM     93  C   UNL d   1       5.650   1.212  13.827  0.00  0.00     0.022 C 
ATOM     94  C   UNL d   1       5.072  -0.105  14.321  0.00  0.00     0.037 C 
BRANCH  92  95
ATOM     95  C   UNL d   1       3.343  -1.535  13.170  0.00  0.00     0.259 C 
ATOM     96  O   UNL d   1       3.113  -2.543  13.842  0.00  0.00    -0.269 OA
ATOM     97  N   UNL d   1       2.370  -0.974  12.367  0.00  0.00    -0.264 N 
ATOM     98  H   UNL d   1       2.634  -0.311  11.643  0.00  0.00     0.190 HD
BRANCH  97  99
ATOM     99  N   UNL d   1       1.119  -1.612  12.338  0.00  0.00    -0.249 N 
ATOM    100  C   UNL d   1      -0.045  -1.082  12.816  0.00  0.00     0.332 C 
ATOM    101  N   UNL d   1      -0.038   0.229  13.130  0.00  0.00    -0.351 N 
ATOM    102  O   UNL d   1      -1.033  -1.778  13.019  0.00  0.00    -0.246 OA
ATOM    103  H   UNL d   1       0.782   0.810  13.100  0.00  0.00     0.160 HD
ATOM    104  H   UNL d   1      -0.849   0.594  13.608  0.00  0.00     0.160 HD
ATOM    105  H   UNL d   1       1.123  -2.606  12.111  0.00  0.00     0.192 HD
ENDBRANCH  97  99
ENDBRANCH  92  95
ENDBRANCH  76  88
ENDBRANCH  74  76
ENDBRANCH  67  72
ENDBRANCH  64  67
ENDBRANCH  62  63
BRANCH  62 106
ATOM    106  C   UNL d   1      11.756   1.365   4.334  0.00  0.00     0.203 C 
BRANCH 106 107
ATOM    107  O   UNL d   1      11.537  -0.053   4.487  0.00  0.00    -0.379 OA
BRANCH 107 108
ATOM    108  C   UNL d   1      12.612  -0.976   4.190  0.00  0.00     0.050 C 
ATOM    109  C   UNL d   1      13.615  -0.422   3.177  0.00  0.00     0.045 C 
ATOM    110  C   UNL d   1      13.429  -1.169   5.480  0.00  0.00     0.045 C 
ATOM    111  C   UNL d   1      12.097  -2.360   3.775  0.00  0.00     0.045 C 
ENDBRANCH 107 108
ENDBRANCH 106 107
ENDBRANCH  62 106
ENDBRANCH  59  62
ENDBRANCH   1  58
TORSDOF 35
ENDMDL
MODEL 9
REMARK VINA RESULT:      -6.2      2.619      6.386
REMARK WARNING: 32 MAX_TORS EXCEEDED!!!
REMARK  35 active torsions:
REMARK  status: ('A' for Active; 'I' for Inactive)
REMARK    1  A    between atoms: C_2  and  O_1 
REMARK    2  A    between atoms: CA_3  and  C_2 
REMARK    3  A    between atoms: C_4  and  CA_3 
REMARK    4  A    between atoms: CA_3  and  N_5 
REMARK       I    between atoms: N_6  and  C_4 
REMARK       I    between atoms: N_5  and  C_8 
REMARK    5  A    between atoms: C_9  and  N_6 
REMARK    6  A    between atoms: CA_10  and  C_8 
REMARK    7  A    between atoms: C_9  and  C_13 
REMARK    8  A    between atoms: C_9  and  C_12 
REMARK    9  A    between atoms: CA_10  and  N_15 
REMARK   10  A    between atoms: CA_10  and  CB_14 
REMARK       I    between atoms: N_16  and  C_12 
REMARK   11  A    between atoms: C_13  and  C_18 
REMARK   12  A    between atoms: CB_14  and  CG_19 
REMARK       I    between atoms: N_15  and  C_20 
REMARK   13  A    between atoms: C_21  and  N_16 
REMARK   14  A    between atoms: CA_26  and  C_20 
REMARK   15  A    between atoms: C_28  and  C_21 
REMARK   16  A    between atoms: C_21  and  C_29 
REMARK   17  A    between atoms: CA_26  and  N_35 
REMARK   18  A    between atoms: CA_26  and  CB_36 
REMARK       I    between atoms: N_37  and  C_28 
REMARK   19  A    between atoms: C_29  and  O_39 
REMARK       I    between atoms: N_35  and  C_43 
REMARK   20  A    between atoms: CB_36  and  CG_44 
REMARK   21  A    between atoms: C_45  and  N_37 
REMARK   22  A    between atoms: O_39  and  C_46 
REMARK   23  A    between atoms: C_40  and  O_47 
REMARK   24  A    between atoms: C_43  and  CA_49 
REMARK   25  A    between atoms: C_54  and  C_45 
REMARK   26  A    between atoms: C_45  and  C_53 
REMARK       I    between atoms: C_53  and  N_62 
REMARK   27  A    between atoms: C_64  and  C_54 
REMARK   28  A    between atoms: N_62  and  C_67 
REMARK   29  A    between atoms: C_67  and  C_72 
REMARK   30  A    between atoms: C_67  and  C_71 
REMARK       I    between atoms: C_71  and  N_73 
REMARK   31  A    between atoms: C_72  and  C_75 
REMARK   32  A    between atoms: C_75  and  C_78 
REMARK   33  A    between atoms: C_77  and  C_81 
REMARK   34  A    between atoms: C_78  and  N_82 
REMARK       I    between atoms: C_81  and  N_83 
REMARK   35  A    between atoms: N_83  and  N_86 
REMARK       I    between atoms: C_85  and  N_87 
REMARK       I    between atoms: C_85  and  N_88 
REMARK       I    between atoms: N_86  and  C_89 
REMARK       I    between atoms: C_89  and  N_91 
ROOT
ATOM      1  C   UNL d   1      -9.487   8.527  -3.464  0.00  0.00     0.180 C 
ENDROOT
BRANCH   1   2
ATOM      2  N   UNL d   1     -10.783   9.093  -3.078  0.00  0.00    -0.346 N 
ATOM      3  C   UNL d   1     -11.061  10.132  -2.216  0.00  0.00     0.243 C 
ATOM      4  O   UNL d   1     -10.244  10.579  -1.419  0.00  0.00    -0.271 OA
ATOM      5  H   UNL d   1     -11.558   8.833  -3.687  0.00  0.00     0.163 HD
BRANCH   3   6
ATOM      6  CA  UNL d   1     -12.578  10.519  -2.214  0.00  0.00     0.200 C 
BRANCH   6   7
ATOM      7  C   UNL d   1     -12.629  12.068  -2.151  0.00  0.00     0.199 C 
BRANCH   7   8
ATOM      8  O   UNL d   1     -11.503  12.593  -2.884  0.00  0.00    -0.398 OA
ATOM      9  H   UNL d   1     -11.787  13.429  -3.297  0.00  0.00     0.209 HD
ENDBRANCH   7   8
ENDBRANCH   6   7
BRANCH   6  10
ATOM     10  N   UNL d   1     -13.330   9.961  -1.032  0.00  0.00    -0.344 N 
ATOM     11  C   UNL d   1     -13.938   8.724  -0.998  0.00  0.00     0.241 C 
ATOM     12  O   UNL d   1     -13.821   7.953  -1.955  0.00  0.00    -0.271 OA
ATOM     13  H   UNL d   1     -13.543  10.643  -0.318  0.00  0.00     0.163 HD
BRANCH  11  14
ATOM     14  CA  UNL d   1     -14.782   8.295   0.304  0.00  0.00     0.181 C 
BRANCH  14  15
ATOM     15  N   UNL d   1     -15.898   7.286   0.211  0.00  0.00    -0.346 N 
ATOM     16  C   UNL d   1     -15.686   5.897   0.137  0.00  0.00     0.241 C 
ATOM     17  O   UNL d   1     -14.569   5.384   0.105  0.00  0.00    -0.271 OA
ATOM     18  H   UNL d   1     -16.841   7.612   0.349  0.00  0.00     0.163 HD
BRANCH  16  19
ATOM     19  CA  UNL d   1     -16.940   4.970   0.130  0.00  0.00     0.182 C 
BRANCH  19  20
ATOM     20  N   UNL d   1     -16.474   3.619   0.421  0.00  0.00    -0.346 N 
ATOM     21  C   UNL d   1     -17.055   2.522  -0.180  0.00  0.00     0.241 C 
ATOM     22  O   UNL d   1     -18.090   2.567  -0.835  0.00  0.00    -0.271 OA
ATOM     23  H   UNL d   1     -15.479   3.533   0.573  0.00  0.00     0.163 HD
BRANCH  21  24
ATOM     24  CA  UNL d   1     -16.311   1.225   0.139  0.00  0.00     0.177 C 
ATOM     25  C   UNL d   1     -16.236   0.868   1.606  0.00  0.00     0.044 C 
ATOM     26  C   UNL d   1     -14.977   0.012   1.666  0.00  0.00     0.105 C 
ATOM     27  C   UNL d   1     -14.132   0.591   0.571  0.00  0.00     0.218 C 
ATOM     28  O   UNL d   1     -12.921   0.431   0.448  0.00  0.00    -0.274 OA
ATOM     29  N   UNL d   1     -14.943   1.292  -0.272  0.00  0.00    -0.348 N 
ATOM     30  H   UNL d   1     -14.620   1.758  -1.115  0.00  0.00     0.163 HD
ENDBRANCH  21  24
ENDBRANCH  19  20
BRANCH  19  31
ATOM     31  CB  UNL d   1     -18.192   5.440   0.917  0.00  0.00     0.093 C 
BRANCH  31  32
ATOM     32  CG  UNL d   1     -19.438   5.697   0.136  0.00  0.00     0.030 A 
ATOM     33  CD2 UNL d   1     -20.589   6.400   0.398  0.00  0.00     0.143 A 
ATOM     34  NE2 UNL d   1     -21.444   6.389  -0.669  0.00  0.00    -0.254 NA
ATOM     35  CE1 UNL d   1     -20.856   5.630  -1.564  0.00  0.00     0.207 A 
ATOM     36  ND1 UNL d   1     -19.648   5.169  -1.120  0.00  0.00    -0.353 N 
ATOM     37  HD1 UNL d   1     -19.012   4.577  -1.638  0.00  0.00     0.166 HD
ENDBRANCH  31  32
ENDBRANCH  19  31
ENDBRANCH  16  19
ENDBRANCH  14  15
BRANCH  14  38
ATOM     38  CB  UNL d   1     -13.766   7.975   1.455  0.00  0.00     0.075 C 
BRANCH  38  39
ATOM     39  CG  UNL d   1     -14.389   8.230   2.793  0.00  0.00    -0.028 C 
ATOM     40  CD1 UNL d   1     -14.891   7.252   3.627  0.00  0.00     0.096 C 
ATOM     41  NE1 UNL d   1     -15.681   7.852   4.561  0.00  0.00    -0.365 N 
ATOM     42  CE2 UNL d   1     -15.547   9.214   4.497  0.00  0.00     0.042 A 
ATOM     43  HE1 UNL d   1     -16.333   7.355   5.151  0.00  0.00     0.165 HD
ATOM     44  CZ2 UNL d   1     -16.134  10.208   5.287  0.00  0.00     0.030 A 
ATOM     45  CD2 UNL d   1     -14.722   9.493   3.403  0.00  0.00    -0.002 A 
ATOM     46  CH2 UNL d   1     -15.843  11.538   4.977  0.00  0.00     0.002 A 
ATOM     47  CZ3 UNL d   1     -15.019  11.858   3.904  0.00  0.00     0.001 A 
ATOM     48  CE3 UNL d   1     -14.480  10.851   3.093  0.00  0.00     0.014 A 
ENDBRANCH  38  39
ENDBRANCH  14  38
ENDBRANCH  11  14
ENDBRANCH   6  10
ENDBRANCH   3   6
ENDBRANCH   1   2
BRANCH   1  49
ATOM     49  C   UNL d   1      -9.405   7.023  -3.784  0.00  0.00     0.073 C 
BRANCH  49  50
ATOM     50  C   UNL d   1     -10.330   5.983  -3.186  0.00  0.00    -0.056 A 
ATOM     51  C   UNL d   1     -10.836   6.032  -1.883  0.00  0.00     0.010 A 
ATOM     52  C   UNL d   1     -11.627   4.987  -1.385  0.00  0.00     0.037 A 
ATOM     53  C   UNL d   1     -11.917   3.888  -2.190  0.00  0.00     0.065 A 
ATOM     54  C   UNL d   1     -11.445   3.820  -3.489  0.00  0.00     0.037 A 
ATOM     55  C   UNL d   1     -10.645   4.856  -3.978  0.00  0.00     0.010 A 
BRANCH  53  56
ATOM     56  O   UNL d   1     -12.654   2.838  -1.730  0.00  0.00    -0.361 OA
ATOM     57  H   UNL d   1     -13.417   3.186  -1.240  0.00  0.00     0.217 HD
ENDBRANCH  53  56
ENDBRANCH  49  50
ENDBRANCH   1  49
BRANCH   1  58
ATOM     58  C   UNL d   1      -8.897   9.549  -4.496  0.00  0.00     0.241 C 
ATOM     59  N   UNL d   1      -7.689  10.158  -4.228  0.00  0.00    -0.344 N 
ATOM     60  H   UNL d   1      -7.357  10.108  -3.273  0.00  0.00     0.163 HD
ATOM     61  O   UNL d   1      -9.557   9.799  -5.510  0.00  0.00    -0.271 OA
BRANCH  59  62
ATOM     62  C   UNL d   1      -7.165  11.311  -5.020  0.00  0.00     0.200 C 
BRANCH  62  63
ATOM     63  C   UNL d   1      -6.850  12.489  -4.016  0.00  0.00     0.243 C 
ATOM     64  N   UNL d   1      -7.808  13.474  -3.862  0.00  0.00    -0.346 N 
ATOM     65  H   UNL d   1      -8.718  13.325  -4.284  0.00  0.00     0.163 HD
ATOM     66  O   UNL d   1      -5.806  12.535  -3.365  0.00  0.00    -0.271 OA
BRANCH  64  67
ATOM     67  C   UNL d   1      -7.653  14.674  -2.957  0.00  0.00     0.177 C 
BRANCH  67  68
ATOM     68  C   UNL d   1      -7.978  15.987  -3.741  0.00  0.00     0.038 C 
BRANCH  68  69
ATOM     69  C   UNL d   1      -9.333  16.092  -4.504  0.00  0.00    -0.020 C 
ATOM     70  C   UNL d   1     -10.320  17.067  -3.863  0.00  0.00     0.009 C 
ATOM     71  C   UNL d   1      -9.110  16.498  -5.973  0.00  0.00     0.009 C 
ENDBRANCH  68  69
ENDBRANCH  67  68
BRANCH  67  72
ATOM     72  C   UNL d   1      -8.572  14.504  -1.701  0.00  0.00     0.241 C 
ATOM     73  O   UNL d   1      -9.102  13.441  -1.390  0.00  0.00    -0.271 OA
ATOM     74  N   UNL d   1      -8.750  15.641  -0.944  0.00  0.00    -0.346 N 
ATOM     75  H   UNL d   1      -8.375  16.520  -1.303  0.00  0.00     0.163 HD
BRANCH  74  76
ATOM     76  C   UNL d   1      -9.540  15.675   0.304  0.00  0.00     0.176 C 
BRANCH  76  77
ATOM     77  C   UNL d   1     -10.982  15.226  -0.008  0.00  0.00     0.037 C 
BRANCH  77  78
ATOM     78  C   UNL d   1     -12.101  16.078   0.600  0.00  0.00     0.024 C 
BRANCH  78  79
ATOM     79  C   UNL d   1     -13.146  15.250   1.325  0.00  0.00     0.152 C 
BRANCH  79  80
ATOM     80  N   UNL d   1     -12.510  14.133   2.001  0.00  0.00    -0.268 NA
ATOM     81  C   UNL d   1     -12.269  14.274   3.250  0.00  0.00     0.143 C 
ATOM     82  N   UNL d   1     -12.561  15.313   4.063  0.00  0.00    -0.278 NA
ATOM     83  N   UNL d   1     -11.624  13.305   3.930  0.00  0.00    -0.278 NA
ATOM     84  H   UNL d   1     -12.596  16.222   3.617  0.00  0.00     0.126 HD
ATOM     85  H   UNL d   1     -12.018  15.338   4.919  0.00  0.00     0.126 HD
ATOM     86  H   UNL d   1     -11.436  12.512   3.316  0.00  0.00     0.126 HD
ATOM     87  H   UNL d   1     -10.768  13.620   4.372  0.00  0.00     0.126 HD
ENDBRANCH  79  80
ENDBRANCH  78  79
ENDBRANCH  77  78
ENDBRANCH  76  77
BRANCH  76  88
ATOM     88  C   UNL d   1      -8.801  14.906   1.448  0.00  0.00     0.243 C 
ATOM     89  O   UNL d   1      -9.226  13.815   1.858  0.00  0.00    -0.271 OA
ATOM     90  N   UNL d   1      -7.676  15.437   2.055  0.00  0.00    -0.337 N 
ATOM     91  C   UNL d   1      -6.992  16.678   1.742  0.00  0.00     0.127 C 
ATOM     92  C   UNL d   1      -6.826  14.611   2.944  0.00  0.00     0.181 C 
ATOM     93  C   UNL d   1      -5.530  16.278   1.737  0.00  0.00     0.022 C 
ATOM     94  C   UNL d   1      -5.430  15.258   2.862  0.00  0.00     0.037 C 
BRANCH  92  95
ATOM     95  C   UNL d   1      -7.271  14.532   4.423  0.00  0.00     0.259 C 
ATOM     96  O   UNL d   1      -6.490  14.672   5.367  0.00  0.00    -0.269 OA
ATOM     97  N   UNL d   1      -8.583  14.155   4.632  0.00  0.00    -0.264 N 
ATOM     98  H   UNL d   1      -9.137  13.806   3.854  0.00  0.00     0.190 HD
BRANCH  97  99
ATOM     99  N   UNL d   1      -8.979  13.924   5.959  0.00  0.00    -0.249 N 
ATOM    100  C   UNL d   1      -9.562  12.778   6.418  0.00  0.00     0.332 C 
ATOM    101  N   UNL d   1      -9.550  11.711   5.593  0.00  0.00    -0.351 N 
ATOM    102  O   UNL d   1     -10.133  12.735   7.501  0.00  0.00    -0.246 OA
ATOM    103  H   UNL d   1      -9.206  11.736   4.649  0.00  0.00     0.160 HD
ATOM    104  H   UNL d   1     -10.095  10.907   5.870  0.00  0.00     0.160 HD
ATOM    105  H   UNL d   1      -8.996  14.737   6.574  0.00  0.00     0.192 HD
ENDBRANCH  97  99
ENDBRANCH  92  95
ENDBRANCH  76  88
ENDBRANCH  74  76
ENDBRANCH  67  72
ENDBRANCH  64  67
ENDBRANCH  62  63
BRANCH  62 106
ATOM    106  C   UNL d   1      -5.930  11.003  -5.940  0.00  0.00     0.203 C 
BRANCH 106 107
ATOM    107  O   UNL d   1      -5.315  12.180  -6.506  0.00  0.00    -0.379 OA
BRANCH 107 108
ATOM    108  C   UNL d   1      -5.870  12.764  -7.709  0.00  0.00     0.050 C 
ATOM    109  C   UNL d   1      -6.930  13.829  -7.424  0.00  0.00     0.045 C 
ATOM    110  C   UNL d   1      -4.737  13.524  -8.422  0.00  0.00     0.045 C 
ATOM    111  C   UNL d   1      -6.385  11.703  -8.690  0.00  0.00     0.045 C 
ENDBRANCH 107 108
ENDBRANCH 106 107
ENDBRANCH  62 106
ENDBRANCH  59  62
ENDBRANCH   1  58
TORSDOF 35
ENDMDL
