MODEL 1
REMARK VINA RESULT:      -7.6      0.000      0.000
REMARK  11 active torsions:
REMARK  status: ('A' for Active; 'I' for Inactive)
REMARK    1  A    between atoms: C_2  and  O_1 
REMARK    2  A    between atoms: C_11  and  O_14 
REMARK    3  A    between atoms: C_15  and  O_17 
REMARK    4  A    between atoms: C_23  and  C_21 
REMARK    5  A    between atoms: C_23  and  C_24 
REMARK    6  A    between atoms: C_24  and  C_26 
REMARK    7  A    between atoms: C_26  and  C_27 
REMARK       I    between atoms: C_27  and  N_28 
REMARK    8  A    between atoms: N_28  and  C_30 
REMARK    9  A    between atoms: C_30  and  C_31 
REMARK   10  A    between atoms: C_31  and  S_32 
REMARK   11  A    between atoms: S_32  and  O_35 
ROOT
ATOM      1  C   UNL d   1       6.853  -5.270  -0.502  0.00  0.00     0.118 C 
ATOM      2  C   UNL d   1       7.104  -6.631   0.135  0.00  0.00     0.032 C 
ATOM      3  C   UNL d   1       8.146  -4.474  -0.621  0.00  0.00     0.037 C 
ATOM      4  C   UNL d   1       8.150  -7.411  -0.651  0.00  0.00     0.012 C 
ATOM      5  C   UNL d   1       9.253  -5.242  -1.367  0.00  0.00    -0.001 C 
ATOM      6  C   UNL d   1       9.511  -6.670  -0.777  0.00  0.00    -0.036 C 
ATOM      7  C   UNL d   1      10.535  -4.392  -1.455  0.00  0.00     0.037 C 
ATOM      8  C   UNL d   1      10.365  -7.490  -1.783  0.00  0.00     0.016 C 
ATOM      9  C   UNL d   1      10.236  -6.540   0.613  0.00  0.00     0.003 C 
ATOM     10  C   UNL d   1      11.341  -4.326  -0.160  0.00  0.00     0.123 C 
ATOM     11  C   UNL d   1      10.477  -7.900   1.333  0.00  0.00     0.038 C 
ATOM     12  C   UNL d   1      11.545  -5.711   0.486  0.00  0.00     0.024 C 
ATOM     13  C   UNL d   1      11.308  -7.817   2.634  0.00  0.00     0.127 C 
ATOM     14  C   UNL d   1      12.199  -5.628   1.869  0.00  0.00     0.003 C 
ATOM     15  C   UNL d   1      12.618  -7.012   2.431  0.00  0.00    -0.010 C 
ATOM     16  C   UNL d   1      13.445  -4.770   1.957  0.00  0.00     0.006 C 
ATOM     17  C   UNL d   1      13.549  -7.815   1.478  0.00  0.00     0.018 C 
ATOM     18  C   UNL d   1      13.425  -6.551   3.705  0.00  0.00     0.000 C 
ATOM     19  C   UNL d   1      14.210  -5.318   3.163  0.00  0.00     0.006 C 
ENDROOT
BRANCH  18  20
ATOM     20  C   UNL d   1      14.367  -7.611   4.374  0.00  0.00    -0.013 C 
ATOM     21  C   UNL d   1      13.651  -8.335   5.518  0.00  0.00     0.010 C 
BRANCH  20  22
ATOM     22  C   UNL d   1      15.718  -7.046   4.901  0.00  0.00     0.014 C 
BRANCH  22  23
ATOM     23  C   UNL d   1      16.967  -7.671   4.242  0.00  0.00     0.103 C 
BRANCH  23  24
ATOM     24  C   UNL d   1      17.078  -9.191   4.265  0.00  0.00     0.217 C 
ATOM     25  O   UNL d   1      16.884  -9.915   3.298  0.00  0.00    -0.274 OA
ATOM     26  N   UNL d   1      17.414  -9.664   5.522  0.00  0.00    -0.360 N 
ATOM     27  H   UNL d   1      17.296  -9.025   6.301  0.00  0.00     0.162 HD
BRANCH  26  28
ATOM     28  C   UNL d   1      17.419 -11.096   5.773  0.00  0.00     0.139 C 
BRANCH  28  29
ATOM     29  C   UNL d   1      16.577 -11.500   6.969  0.00  0.00     0.175 C 
BRANCH  29  30
ATOM     30  S   UNL d   1      15.144 -12.379   6.405  0.00  0.00     0.095 S 
ATOM     31  O   UNL d   1      15.506 -13.754   6.116  0.00  0.00    -0.601 OA
ATOM     32  O   UNL d   1      13.999 -12.018   7.188  0.00  0.00    -0.601 OA
BRANCH  30  33
ATOM     33  O   UNL d   1      15.015 -11.666   4.955  0.00  0.00    -0.296 OA
ATOM     34  H   UNL d   1      15.474 -10.799   5.000  0.00  0.00     0.232 HD
ENDBRANCH  30  33
ENDBRANCH  29  30
ENDBRANCH  28  29
ENDBRANCH  26  28
ENDBRANCH  23  24
ENDBRANCH  22  23
ENDBRANCH  20  22
ENDBRANCH  18  20
BRANCH  13  35
ATOM     35  O   UNL d   1      10.513  -7.292   3.694  0.00  0.00    -0.395 OA
ATOM     36  H   UNL d   1       9.633  -7.065   3.356  0.00  0.00     0.210 HD
ENDBRANCH  13  35
BRANCH  10  37
ATOM     37  O   UNL d   1      10.764  -3.376   0.728  0.00  0.00    -0.395 OA
ATOM     38  H   UNL d   1      11.421  -3.110   1.389  0.00  0.00     0.210 HD
ENDBRANCH  10  37
BRANCH   1  39
ATOM     39  O   UNL d   1       5.936  -4.551   0.315  0.00  0.00    -0.396 OA
ATOM     40  H   UNL d   1       5.044  -4.700  -0.044  0.00  0.00     0.210 HD
ENDBRANCH   1  39
TORSDOF 11
ENDMDL
MODEL 2
REMARK VINA RESULT:      -7.4      2.457      3.214
REMARK  11 active torsions:
REMARK  status: ('A' for Active; 'I' for Inactive)
REMARK    1  A    between atoms: C_2  and  O_1 
REMARK    2  A    between atoms: C_11  and  O_14 
REMARK    3  A    between atoms: C_15  and  O_17 
REMARK    4  A    between atoms: C_23  and  C_21 
REMARK    5  A    between atoms: C_23  and  C_24 
REMARK    6  A    between atoms: C_24  and  C_26 
REMARK    7  A    between atoms: C_26  and  C_27 
REMARK       I    between atoms: C_27  and  N_28 
REMARK    8  A    between atoms: N_28  and  C_30 
REMARK    9  A    between atoms: C_30  and  C_31 
REMARK   10  A    between atoms: C_31  and  S_32 
REMARK   11  A    between atoms: S_32  and  O_35 
ROOT
ATOM      1  C   UNL d   1       6.907  -5.736  -0.727  0.00  0.00     0.118 C 
ATOM      2  C   UNL d   1       7.284  -7.053  -0.061  0.00  0.00     0.032 C 
ATOM      3  C   UNL d   1       8.093  -4.781  -0.765  0.00  0.00     0.037 C 
ATOM      4  C   UNL d   1       8.472  -7.694  -0.767  0.00  0.00     0.012 C 
ATOM      5  C   UNL d   1       9.337  -5.403  -1.427  0.00  0.00    -0.001 C 
ATOM      6  C   UNL d   1       9.734  -6.786  -0.806  0.00  0.00    -0.036 C 
ATOM      7  C   UNL d   1      10.504  -4.397  -1.435  0.00  0.00     0.037 C 
ATOM      8  C   UNL d   1      10.752  -7.491  -1.745  0.00  0.00     0.016 C 
ATOM      9  C   UNL d   1      10.339  -6.563   0.628  0.00  0.00     0.003 C 
ATOM     10  C   UNL d   1      11.204  -4.228  -0.089  0.00  0.00     0.123 C 
ATOM     11  C   UNL d   1      10.700  -7.880   1.376  0.00  0.00     0.038 C 
ATOM     12  C   UNL d   1      11.537  -5.574   0.582  0.00  0.00     0.024 C 
ATOM     13  C   UNL d   1      11.423  -7.691   2.730  0.00  0.00     0.127 C 
ATOM     14  C   UNL d   1      12.079  -5.407   2.006  0.00  0.00     0.003 C 
ATOM     15  C   UNL d   1      12.630  -6.727   2.609  0.00  0.00    -0.010 C 
ATOM     16  C   UNL d   1      13.196  -4.398   2.170  0.00  0.00     0.006 C 
ATOM     17  C   UNL d   1      13.719  -7.405   1.729  0.00  0.00     0.018 C 
ATOM     18  C   UNL d   1      13.283  -6.165   3.930  0.00  0.00     0.000 C 
ATOM     19  C   UNL d   1      13.940  -4.843   3.431  0.00  0.00     0.006 C 
ENDROOT
BRANCH  18  20
ATOM     20  C   UNL d   1      14.304  -7.096   4.672  0.00  0.00    -0.013 C 
ATOM     21  C   UNL d   1      15.732  -6.846   4.180  0.00  0.00     0.010 C 
BRANCH  20  22
ATOM     22  C   UNL d   1      13.994  -8.619   4.572  0.00  0.00     0.014 C 
BRANCH  22  23
ATOM     23  C   UNL d   1      13.769  -9.311   5.933  0.00  0.00     0.103 C 
BRANCH  23  24
ATOM     24  C   UNL d   1      12.382  -9.190   6.553  0.00  0.00     0.217 C 
ATOM     25  O   UNL d   1      11.342  -9.099   5.914  0.00  0.00    -0.274 OA
ATOM     26  N   UNL d   1      12.436  -9.184   7.937  0.00  0.00    -0.360 N 
ATOM     27  H   UNL d   1      13.338  -9.000   8.362  0.00  0.00     0.162 HD
BRANCH  26  28
ATOM     28  C   UNL d   1      11.226  -8.926   8.701  0.00  0.00     0.139 C 
BRANCH  28  29
ATOM     29  C   UNL d   1      11.437  -8.989  10.202  0.00  0.00     0.175 C 
BRANCH  29  30
ATOM     30  S   UNL d   1      11.942 -10.627  10.655  0.00  0.00     0.095 S 
ATOM     31  O   UNL d   1      11.686 -10.836  12.067  0.00  0.00    -0.601 OA
ATOM     32  O   UNL d   1      11.556 -11.564   9.642  0.00  0.00    -0.601 OA
BRANCH  30  33
ATOM     33  O   UNL d   1      13.543 -10.392  10.550  0.00  0.00    -0.296 OA
ATOM     34  H   UNL d   1      13.747 -10.088   9.638  0.00  0.00     0.232 HD
ENDBRANCH  30  33
ENDBRANCH  29  30
ENDBRANCH  28  29
ENDBRANCH  26  28
ENDBRANCH  23  24
ENDBRANCH  22  23
ENDBRANCH  20  22
ENDBRANCH  18  20
BRANCH  13  35
ATOM     35  O   UNL d   1      10.496  -7.272   3.728  0.00  0.00    -0.395 OA
ATOM     36  H   UNL d   1      10.849  -6.496   4.191  0.00  0.00     0.210 HD
ENDBRANCH  13  35
BRANCH  10  37
ATOM     37  O   UNL d   1      10.451  -3.358   0.749  0.00  0.00    -0.395 OA
ATOM     38  H   UNL d   1       9.530  -3.659   0.785  0.00  0.00     0.210 HD
ENDBRANCH  10  37
BRANCH   1  39
ATOM     39  O   UNL d   1       5.852  -5.139   0.019  0.00  0.00    -0.396 OA
ATOM     40  H   UNL d   1       6.038  -4.186   0.080  0.00  0.00     0.210 HD
ENDBRANCH   1  39
TORSDOF 11
ENDMDL
MODEL 3
REMARK VINA RESULT:      -7.1     18.523     20.637
REMARK  11 active torsions:
REMARK  status: ('A' for Active; 'I' for Inactive)
REMARK    1  A    between atoms: C_2  and  O_1 
REMARK    2  A    between atoms: C_11  and  O_14 
REMARK    3  A    between atoms: C_15  and  O_17 
REMARK    4  A    between atoms: C_23  and  C_21 
REMARK    5  A    between atoms: C_23  and  C_24 
REMARK    6  A    between atoms: C_24  and  C_26 
REMARK    7  A    between atoms: C_26  and  C_27 
REMARK       I    between atoms: C_27  and  N_28 
REMARK    8  A    between atoms: N_28  and  C_30 
REMARK    9  A    between atoms: C_30  and  C_31 
REMARK   10  A    between atoms: C_31  and  S_32 
REMARK   11  A    between atoms: S_32  and  O_35 
ROOT
ATOM      1  C   UNL d   1      12.730   1.833  13.031  0.00  0.00     0.118 C 
ATOM      2  C   UNL d   1      11.642   2.762  13.555  0.00  0.00     0.032 C 
ATOM      3  C   UNL d   1      12.978   0.680  13.996  0.00  0.00     0.037 C 
ATOM      4  C   UNL d   1      10.355   1.992  13.820  0.00  0.00     0.012 C 
ATOM      5  C   UNL d   1      11.693  -0.100  14.333  0.00  0.00    -0.001 C 
ATOM      6  C   UNL d   1      10.529   0.823  14.829  0.00  0.00    -0.036 C 
ATOM      7  C   UNL d   1      12.002  -1.249  15.312  0.00  0.00     0.037 C 
ATOM      8  C   UNL d   1       9.198   0.021  14.804  0.00  0.00     0.016 C 
ATOM      9  C   UNL d   1      10.853   1.344  16.277  0.00  0.00     0.003 C 
ATOM     10  C   UNL d   1      12.212  -0.810  16.759  0.00  0.00     0.123 C 
ATOM     11  C   UNL d   1       9.796   2.337  16.846  0.00  0.00     0.038 C 
ATOM     12  C   UNL d   1      11.121   0.162  17.250  0.00  0.00     0.024 C 
ATOM     13  C   UNL d   1      10.016   2.759  18.317  0.00  0.00     0.127 C 
ATOM     14  C   UNL d   1      11.425   0.739  18.637  0.00  0.00     0.003 C 
ATOM     15  C   UNL d   1      10.238   1.535  19.241  0.00  0.00    -0.010 C 
ATOM     16  C   UNL d   1      11.809  -0.270  19.700  0.00  0.00     0.006 C 
ATOM     17  C   UNL d   1       8.914   0.721  19.310  0.00  0.00     0.018 C 
ATOM     18  C   UNL d   1      10.792   1.779  20.697  0.00  0.00     0.000 C 
ATOM     19  C   UNL d   1      11.458   0.409  21.025  0.00  0.00     0.006 C 
ENDROOT
BRANCH  18  20
ATOM     20  C   UNL d   1       9.756   2.217  21.790  0.00  0.00    -0.013 C 
ATOM     21  C   UNL d   1      10.026   3.650  22.257  0.00  0.00     0.010 C 
BRANCH  20  22
ATOM     22  C   UNL d   1       9.685   1.285  23.035  0.00  0.00     0.014 C 
BRANCH  22  23
ATOM     23  C   UNL d   1       8.444   0.366  23.069  0.00  0.00     0.103 C 
BRANCH  23  24
ATOM     24  C   UNL d   1       7.782   0.143  24.424  0.00  0.00     0.217 C 
ATOM     25  O   UNL d   1       8.127  -0.709  25.232  0.00  0.00    -0.274 OA
ATOM     26  N   UNL d   1       6.728   1.016  24.632  0.00  0.00    -0.360 N 
ATOM     27  H   UNL d   1       6.359   1.494  23.817  0.00  0.00     0.162 HD
BRANCH  26  28
ATOM     28  C   UNL d   1       5.883   0.854  25.804  0.00  0.00     0.139 C 
BRANCH  28  29
ATOM     29  C   UNL d   1       5.839   2.086  26.689  0.00  0.00     0.175 C 
BRANCH  29  30
ATOM     30  S   UNL d   1       5.327   3.483  25.724  0.00  0.00     0.095 S 
ATOM     31  O   UNL d   1       4.686   4.455  26.589  0.00  0.00    -0.601 OA
ATOM     32  O   UNL d   1       6.340   3.829  24.772  0.00  0.00    -0.601 OA
BRANCH  30  33
ATOM     33  O   UNL d   1       4.110   2.759  24.934  0.00  0.00    -0.296 OA
ATOM     34  H   UNL d   1       3.323   2.756  25.522  0.00  0.00     0.232 HD
ENDBRANCH  30  33
ENDBRANCH  29  30
ENDBRANCH  28  29
ENDBRANCH  26  28
ENDBRANCH  23  24
ENDBRANCH  22  23
ENDBRANCH  20  22
ENDBRANCH  18  20
BRANCH  13  35
ATOM     35  O   UNL d   1      11.082   3.701  18.405  0.00  0.00    -0.395 OA
ATOM     36  H   UNL d   1      11.312   4.012  17.516  0.00  0.00     0.210 HD
ENDBRANCH  13  35
BRANCH  10  37
ATOM     37  O   UNL d   1      13.530  -0.302  16.929  0.00  0.00    -0.395 OA
ATOM     38  H   UNL d   1      13.943  -0.173  16.062  0.00  0.00     0.210 HD
ENDBRANCH  10  37
BRANCH   1  39
ATOM     39  O   UNL d   1      13.931   2.582  12.882  0.00  0.00    -0.396 OA
ATOM     40  H   UNL d   1      14.395   2.567  13.737  0.00  0.00     0.210 HD
ENDBRANCH   1  39
TORSDOF 11
ENDMDL
MODEL 4
REMARK VINA RESULT:      -7.1      7.342     10.144
REMARK  11 active torsions:
REMARK  status: ('A' for Active; 'I' for Inactive)
REMARK    1  A    between atoms: C_2  and  O_1 
REMARK    2  A    between atoms: C_11  and  O_14 
REMARK    3  A    between atoms: C_15  and  O_17 
REMARK    4  A    between atoms: C_23  and  C_21 
REMARK    5  A    between atoms: C_23  and  C_24 
REMARK    6  A    between atoms: C_24  and  C_26 
REMARK    7  A    between atoms: C_26  and  C_27 
REMARK       I    between atoms: C_27  and  N_28 
REMARK    8  A    between atoms: N_28  and  C_30 
REMARK    9  A    between atoms: C_30  and  C_31 
REMARK   10  A    between atoms: C_31  and  S_32 
REMARK   11  A    between atoms: S_32  and  O_35 
ROOT
ATOM      1  C   UNL d   1      13.382  -7.491   4.020  0.00  0.00     0.118 C 
ATOM      2  C   UNL d   1      11.927  -7.819   4.331  0.00  0.00     0.032 C 
ATOM      3  C   UNL d   1      14.315  -8.094   5.062  0.00  0.00     0.037 C 
ATOM      4  C   UNL d   1      11.722  -9.325   4.435  0.00  0.00     0.012 C 
ATOM      5  C   UNL d   1      14.111  -9.610   5.239  0.00  0.00    -0.001 C 
ATOM      6  C   UNL d   1      12.618  -9.999   5.513  0.00  0.00    -0.036 C 
ATOM      7  C   UNL d   1      15.075 -10.164   6.306  0.00  0.00     0.037 C 
ATOM      8  C   UNL d   1      12.449 -11.532   5.326  0.00  0.00     0.016 C 
ATOM      9  C   UNL d   1      12.217  -9.554   6.967  0.00  0.00     0.003 C 
ATOM     10  C   UNL d   1      14.671  -9.859   7.745  0.00  0.00     0.123 C 
ATOM     11  C   UNL d   1      10.726  -9.822   7.325  0.00  0.00     0.038 C 
ATOM     12  C   UNL d   1      13.185 -10.159   8.023  0.00  0.00     0.024 C 
ATOM     13  C   UNL d   1      10.337  -9.522   8.791  0.00  0.00     0.127 C 
ATOM     14  C   UNL d   1      12.736  -9.691   9.412  0.00  0.00     0.003 C 
ATOM     15  C   UNL d   1      11.316 -10.185   9.794  0.00  0.00    -0.010 C 
ATOM     16  C   UNL d   1      13.626 -10.107  10.565  0.00  0.00     0.006 C 
ATOM     17  C   UNL d   1      11.148 -11.729   9.702  0.00  0.00     0.018 C 
ATOM     18  C   UNL d   1      11.272  -9.731  11.303  0.00  0.00     0.000 C 
ATOM     19  C   UNL d   1      12.710 -10.082  11.791  0.00  0.00     0.006 C 
ENDROOT
BRANCH  18  20
ATOM     20  C   UNL d   1      10.162 -10.371  12.208  0.00  0.00    -0.013 C 
ATOM     21  C   UNL d   1      10.203  -9.786  13.622  0.00  0.00     0.010 C 
BRANCH  20  22
ATOM     22  C   UNL d   1      10.209 -11.924  12.303  0.00  0.00     0.014 C 
BRANCH  22  23
ATOM     23  C   UNL d   1      10.525 -12.464  13.714  0.00  0.00     0.103 C 
BRANCH  23  24
ATOM     24  C   UNL d   1      10.137 -13.909  14.008  0.00  0.00     0.217 C 
ATOM     25  O   UNL d   1      10.849 -14.878  13.780  0.00  0.00    -0.274 OA
ATOM     26  N   UNL d   1       8.869 -14.000  14.557  0.00  0.00    -0.360 N 
ATOM     27  H   UNL d   1       8.268 -13.189  14.463  0.00  0.00     0.162 HD
BRANCH  26  28
ATOM     28  C   UNL d   1       8.270 -15.308  14.765  0.00  0.00     0.139 C 
BRANCH  28  29
ATOM     29  C   UNL d   1       6.752 -15.282  14.759  0.00  0.00     0.175 C 
BRANCH  29  30
ATOM     30  S   UNL d   1       6.182 -14.091  15.942  0.00  0.00     0.095 S 
ATOM     31  O   UNL d   1       4.823 -14.415  16.334  0.00  0.00    -0.601 OA
ATOM     32  O   UNL d   1       7.218 -13.790  16.885  0.00  0.00    -0.601 OA
BRANCH  30  33
ATOM     33  O   UNL d   1       6.037 -12.837  14.926  0.00  0.00    -0.296 OA
ATOM     34  H   UNL d   1       5.253 -12.996  14.355  0.00  0.00     0.232 HD
ENDBRANCH  30  33
ENDBRANCH  29  30
ENDBRANCH  28  29
ENDBRANCH  26  28
ENDBRANCH  23  24
ENDBRANCH  22  23
ENDBRANCH  20  22
ENDBRANCH  18  20
BRANCH  13  35
ATOM     35  O   UNL d   1      10.228  -8.116   8.994  0.00  0.00    -0.395 OA
ATOM     36  H   UNL d   1      10.773  -7.856   9.752  0.00  0.00     0.210 HD
ENDBRANCH  13  35
BRANCH  10  37
ATOM     37  O   UNL d   1      15.045  -8.529   8.088  0.00  0.00    -0.395 OA
ATOM     38  H   UNL d   1      15.185  -8.469   9.045  0.00  0.00     0.210 HD
ENDBRANCH  10  37
BRANCH   1  39
ATOM     39  O   UNL d   1      13.537  -6.077   4.017  0.00  0.00    -0.396 OA
ATOM     40  H   UNL d   1      12.690  -5.689   3.736  0.00  0.00     0.210 HD
ENDBRANCH   1  39
TORSDOF 11
ENDMDL
MODEL 5
REMARK VINA RESULT:      -6.9      1.419      2.139
REMARK  11 active torsions:
REMARK  status: ('A' for Active; 'I' for Inactive)
REMARK    1  A    between atoms: C_2  and  O_1 
REMARK    2  A    between atoms: C_11  and  O_14 
REMARK    3  A    between atoms: C_15  and  O_17 
REMARK    4  A    between atoms: C_23  and  C_21 
REMARK    5  A    between atoms: C_23  and  C_24 
REMARK    6  A    between atoms: C_24  and  C_26 
REMARK    7  A    between atoms: C_26  and  C_27 
REMARK       I    between atoms: C_27  and  N_28 
REMARK    8  A    between atoms: N_28  and  C_30 
REMARK    9  A    between atoms: C_30  and  C_31 
REMARK   10  A    between atoms: C_31  and  S_32 
REMARK   11  A    between atoms: S_32  and  O_35 
ROOT
ATOM      1  C   UNL d   1       7.175  -5.546  -0.864  0.00  0.00     0.118 C 
ATOM      2  C   UNL d   1       7.480  -6.895  -0.226  0.00  0.00     0.032 C 
ATOM      3  C   UNL d   1       8.394  -4.632  -0.822  0.00  0.00     0.037 C 
ATOM      4  C   UNL d   1       8.675  -7.555  -0.902  0.00  0.00     0.012 C 
ATOM      5  C   UNL d   1       9.643  -5.276  -1.451  0.00  0.00    -0.001 C 
ATOM      6  C   UNL d   1       9.967  -6.690  -0.859  0.00  0.00    -0.036 C 
ATOM      7  C   UNL d   1      10.842  -4.311  -1.378  0.00  0.00     0.037 C 
ATOM      8  C   UNL d   1      11.000  -7.401  -1.776  0.00  0.00     0.016 C 
ATOM      9  C   UNL d   1      10.516  -6.534   0.606  0.00  0.00     0.003 C 
ATOM     10  C   UNL d   1      11.489  -4.209   0.001  0.00  0.00     0.123 C 
ATOM     11  C   UNL d   1      10.801  -7.885   1.325  0.00  0.00     0.038 C 
ATOM     12  C   UNL d   1      11.748  -5.586   0.642  0.00  0.00     0.024 C 
ATOM     13  C   UNL d   1      11.471  -7.763   2.713  0.00  0.00     0.127 C 
ATOM     14  C   UNL d   1      12.234  -5.482   2.092  0.00  0.00     0.003 C 
ATOM     15  C   UNL d   1      12.714  -6.837   2.675  0.00  0.00    -0.010 C 
ATOM     16  C   UNL d   1      13.376  -4.517   2.335  0.00  0.00     0.006 C 
ATOM     17  C   UNL d   1      13.817  -7.526   1.820  0.00  0.00     0.018 C 
ATOM     18  C   UNL d   1      13.328  -6.340   4.039  0.00  0.00     0.000 C 
ATOM     19  C   UNL d   1      14.049  -5.027   3.611  0.00  0.00     0.006 C 
ENDROOT
BRANCH  18  20
ATOM     20  C   UNL d   1      14.284  -7.329   4.793  0.00  0.00    -0.013 C 
ATOM     21  C   UNL d   1      15.739  -7.116   4.367  0.00  0.00     0.010 C 
BRANCH  20  22
ATOM     22  C   UNL d   1      13.926  -8.835   4.634  0.00  0.00     0.014 C 
BRANCH  22  23
ATOM     23  C   UNL d   1      13.183  -9.442   5.843  0.00  0.00     0.103 C 
BRANCH  23  24
ATOM     24  C   UNL d   1      13.556 -10.864   6.246  0.00  0.00     0.217 C 
ATOM     25  O   UNL d   1      13.137 -11.434   7.244  0.00  0.00    -0.274 OA
ATOM     26  N   UNL d   1      14.443 -11.436   5.350  0.00  0.00    -0.360 N 
ATOM     27  H   UNL d   1      14.927 -10.810   4.717  0.00  0.00     0.162 HD
BRANCH  26  28
ATOM     28  C   UNL d   1      15.027 -12.734   5.649  0.00  0.00     0.139 C 
BRANCH  28  29
ATOM     29  C   UNL d   1      16.522 -12.793   5.394  0.00  0.00     0.175 C 
BRANCH  29  30
ATOM     30  S   UNL d   1      17.312 -11.441   6.225  0.00  0.00     0.095 S 
ATOM     31  O   UNL d   1      17.248 -10.259   5.388  0.00  0.00    -0.601 OA
ATOM     32  O   UNL d   1      16.961 -11.437   7.614  0.00  0.00    -0.601 OA
BRANCH  30  33
ATOM     33  O   UNL d   1      18.839 -11.970   6.086  0.00  0.00    -0.296 OA
ATOM     34  H   UNL d   1      18.825 -12.808   5.573  0.00  0.00     0.232 HD
ENDBRANCH  30  33
ENDBRANCH  29  30
ENDBRANCH  28  29
ENDBRANCH  26  28
ENDBRANCH  23  24
ENDBRANCH  22  23
ENDBRANCH  20  22
ENDBRANCH  18  20
BRANCH  13  35
ATOM     35  O   UNL d   1      10.516  -7.342   3.685  0.00  0.00    -0.395 OA
ATOM     36  H   UNL d   1       9.689  -7.101   3.242  0.00  0.00     0.210 HD
ENDBRANCH  13  35
BRANCH  10  37
ATOM     37  O   UNL d   1      10.731  -3.339   0.834  0.00  0.00    -0.395 OA
ATOM     38  H   UNL d   1      10.493  -2.541   0.339  0.00  0.00     0.210 HD
ENDBRANCH  10  37
BRANCH   1  39
ATOM     39  O   UNL d   1       6.110  -4.936  -0.145  0.00  0.00    -0.396 OA
ATOM     40  H   UNL d   1       5.823  -5.562   0.542  0.00  0.00     0.210 HD
ENDBRANCH   1  39
TORSDOF 11
ENDMDL
MODEL 6
REMARK VINA RESULT:      -6.9     35.984     39.184
REMARK  11 active torsions:
REMARK  status: ('A' for Active; 'I' for Inactive)
REMARK    1  A    between atoms: C_2  and  O_1 
REMARK    2  A    between atoms: C_11  and  O_14 
REMARK    3  A    between atoms: C_15  and  O_17 
REMARK    4  A    between atoms: C_23  and  C_21 
REMARK    5  A    between atoms: C_23  and  C_24 
REMARK    6  A    between atoms: C_24  and  C_26 
REMARK    7  A    between atoms: C_26  and  C_27 
REMARK       I    between atoms: C_27  and  N_28 
REMARK    8  A    between atoms: N_28  and  C_30 
REMARK    9  A    between atoms: C_30  and  C_31 
REMARK   10  A    between atoms: C_31  and  S_32 
REMARK   11  A    between atoms: S_32  and  O_35 
ROOT
ATOM      1  C   UNL d   1     -17.192  11.612  14.037  0.00  0.00     0.118 C 
ATOM      2  C   UNL d   1     -16.547  12.734  13.233  0.00  0.00     0.032 C 
ATOM      3  C   UNL d   1     -18.157  10.807  13.176  0.00  0.00     0.037 C 
ATOM      4  C   UNL d   1     -15.840  12.180  12.002  0.00  0.00     0.012 C 
ATOM      5  C   UNL d   1     -17.500  10.265  11.892  0.00  0.00    -0.001 C 
ATOM      6  C   UNL d   1     -16.779  11.378  11.057  0.00  0.00    -0.036 C 
ATOM      7  C   UNL d   1     -18.520   9.463  11.061  0.00  0.00     0.037 C 
ATOM      8  C   UNL d   1     -15.863  10.706   9.997  0.00  0.00     0.016 C 
ATOM      9  C   UNL d   1     -17.854  12.304  10.378  0.00  0.00     0.003 C 
ATOM     10  C   UNL d   1     -19.519  10.319  10.287  0.00  0.00     0.123 C 
ATOM     11  C   UNL d   1     -17.251  13.498   9.581  0.00  0.00     0.038 C 
ATOM     12  C   UNL d   1     -18.845  11.472   9.516  0.00  0.00     0.024 C 
ATOM     13  C   UNL d   1     -18.275  14.344   8.790  0.00  0.00     0.127 C 
ATOM     14  C   UNL d   1     -19.857  12.432   8.883  0.00  0.00     0.003 C 
ATOM     15  C   UNL d   1     -19.206  13.460   7.921  0.00  0.00    -0.010 C 
ATOM     16  C   UNL d   1     -20.966  11.783   8.081  0.00  0.00     0.006 C 
ATOM     17  C   UNL d   1     -18.356  12.806   6.794  0.00  0.00     0.018 C 
ATOM     18  C   UNL d   1     -20.503  14.109   7.304  0.00  0.00     0.000 C 
ATOM     19  C   UNL d   1     -21.424  12.868   7.103  0.00  0.00     0.006 C 
ENDROOT
BRANCH  18  20
ATOM     20  C   UNL d   1     -20.327  14.941   5.986  0.00  0.00    -0.013 C 
ATOM     21  C   UNL d   1     -20.425  16.442   6.269  0.00  0.00     0.010 C 
BRANCH  20  22
ATOM     22  C   UNL d   1     -21.319  14.576   4.844  0.00  0.00     0.014 C 
BRANCH  22  23
ATOM     23  C   UNL d   1     -21.356  15.597   3.686  0.00  0.00     0.103 C 
BRANCH  23  24
ATOM     24  C   UNL d   1     -20.405  15.359   2.519  0.00  0.00     0.217 C 
ATOM     25  O   UNL d   1     -19.189  15.270   2.623  0.00  0.00    -0.274 OA
ATOM     26  N   UNL d   1     -21.081  15.265   1.315  0.00  0.00    -0.360 N 
ATOM     27  H   UNL d   1     -22.035  15.608   1.294  0.00  0.00     0.162 HD
BRANCH  26  28
ATOM     28  C   UNL d   1     -20.328  15.188   0.073  0.00  0.00     0.139 C 
BRANCH  28  29
ATOM     29  C   UNL d   1     -20.950  14.256  -0.951  0.00  0.00     0.175 C 
BRANCH  29  30
ATOM     30  S   UNL d   1     -20.703  12.577  -0.440  0.00  0.00     0.095 S 
ATOM     31  O   UNL d   1     -19.652  12.527   0.558  0.00  0.00    -0.601 OA
ATOM     32  O   UNL d   1     -21.963  11.913  -0.285  0.00  0.00    -0.601 OA
BRANCH  30  33
ATOM     33  O   UNL d   1     -20.010  12.041  -1.805  0.00  0.00    -0.296 OA
ATOM     34  H   UNL d   1     -20.718  11.697  -2.392  0.00  0.00     0.232 HD
ENDBRANCH  30  33
ENDBRANCH  29  30
ENDBRANCH  28  29
ENDBRANCH  26  28
ENDBRANCH  23  24
ENDBRANCH  22  23
ENDBRANCH  20  22
ENDBRANCH  18  20
BRANCH  13  35
ATOM     35  O   UNL d   1     -19.006  15.188   9.676  0.00  0.00    -0.395 OA
ATOM     36  H   UNL d   1     -18.387  15.717  10.202  0.00  0.00     0.210 HD
ENDBRANCH  13  35
BRANCH  10  37
ATOM     37  O   UNL d   1     -20.560  10.760  11.151  0.00  0.00    -0.395 OA
ATOM     38  H   UNL d   1     -20.178  11.069  11.986  0.00  0.00     0.210 HD
ENDBRANCH  10  37
BRANCH   1  39
ATOM     39  O   UNL d   1     -17.907  12.189  15.124  0.00  0.00    -0.396 OA
ATOM     40  H   UNL d   1     -17.994  13.141  14.946  0.00  0.00     0.210 HD
ENDBRANCH   1  39
TORSDOF 11
ENDMDL
MODEL 7
REMARK VINA RESULT:      -6.9     36.697     39.656
REMARK  11 active torsions:
REMARK  status: ('A' for Active; 'I' for Inactive)
REMARK    1  A    between atoms: C_2  and  O_1 
REMARK    2  A    between atoms: C_11  and  O_14 
REMARK    3  A    between atoms: C_15  and  O_17 
REMARK    4  A    between atoms: C_23  and  C_21 
REMARK    5  A    between atoms: C_23  and  C_24 
REMARK    6  A    between atoms: C_24  and  C_26 
REMARK    7  A    between atoms: C_26  and  C_27 
REMARK       I    between atoms: C_27  and  N_28 
REMARK    8  A    between atoms: N_28  and  C_30 
REMARK    9  A    between atoms: C_30  and  C_31 
REMARK   10  A    between atoms: C_31  and  S_32 
REMARK   11  A    between atoms: S_32  and  O_35 
ROOT
ATOM      1  C   UNL d   1     -16.517  13.738  14.470  0.00  0.00     0.118 C 
ATOM      2  C   UNL d   1     -16.810  14.747  13.367  0.00  0.00     0.032 C 
ATOM      3  C   UNL d   1     -17.006  12.348  14.085  0.00  0.00     0.037 C 
ATOM      4  C   UNL d   1     -16.191  14.301  12.048  0.00  0.00     0.012 C 
ATOM      5  C   UNL d   1     -16.444  11.872  12.732  0.00  0.00    -0.001 C 
ATOM      6  C   UNL d   1     -16.679  12.902  11.576  0.00  0.00    -0.036 C 
ATOM      7  C   UNL d   1     -16.973  10.465  12.393  0.00  0.00     0.037 C 
ATOM      8  C   UNL d   1     -15.790  12.515  10.361  0.00  0.00     0.016 C 
ATOM      9  C   UNL d   1     -18.203  12.917  11.186  0.00  0.00     0.003 C 
ATOM     10  C   UNL d   1     -18.417  10.434  11.898  0.00  0.00     0.123 C 
ATOM     11  C   UNL d   1     -18.569  13.964  10.094  0.00  0.00     0.038 C 
ATOM     12  C   UNL d   1     -18.698  11.491  10.812  0.00  0.00     0.024 C 
ATOM     13  C   UNL d   1     -20.031  13.908   9.593  0.00  0.00     0.127 C 
ATOM     14  C   UNL d   1     -20.182  11.578  10.441  0.00  0.00     0.003 C 
ATOM     15  C   UNL d   1     -20.450  12.468   9.198  0.00  0.00    -0.010 C 
ATOM     16  C   UNL d   1     -20.863  10.259  10.139  0.00  0.00     0.006 C 
ATOM     17  C   UNL d   1     -19.638  12.043   7.941  0.00  0.00     0.018 C 
ATOM     18  C   UNL d   1     -21.980  12.162   8.975  0.00  0.00     0.000 C 
ATOM     19  C   UNL d   1     -22.048  10.629   9.246  0.00  0.00     0.006 C 
ENDROOT
BRANCH  18  20
ATOM     20  C   UNL d   1     -22.589  12.551   7.583  0.00  0.00    -0.013 C 
ATOM     21  C   UNL d   1     -23.608  13.685   7.727  0.00  0.00     0.010 C 
BRANCH  20  22
ATOM     22  C   UNL d   1     -23.250  11.374   6.806  0.00  0.00     0.014 C 
BRANCH  22  23
ATOM     23  C   UNL d   1     -23.209  11.526   5.270  0.00  0.00     0.103 C 
BRANCH  23  24
ATOM     24  C   UNL d   1     -21.836  11.647   4.620  0.00  0.00     0.217 C 
ATOM     25  O   UNL d   1     -20.906  10.876   4.817  0.00  0.00    -0.274 OA
ATOM     26  N   UNL d   1     -21.758  12.746   3.782  0.00  0.00    -0.360 N 
ATOM     27  H   UNL d   1     -22.473  13.457   3.887  0.00  0.00     0.162 HD
BRANCH  26  28
ATOM     28  C   UNL d   1     -20.480  13.108   3.190  0.00  0.00     0.139 C 
BRANCH  28  29
ATOM     29  C   UNL d   1     -19.724  14.157   3.985  0.00  0.00     0.175 C 
BRANCH  29  30
ATOM     30  S   UNL d   1     -20.785  15.546   4.279  0.00  0.00     0.095 S 
ATOM     31  O   UNL d   1     -21.769  15.195   5.286  0.00  0.00    -0.601 OA
ATOM     32  O   UNL d   1     -20.019  16.757   4.321  0.00  0.00    -0.601 OA
BRANCH  30  33
ATOM     33  O   UNL d   1     -21.589  15.500   2.873  0.00  0.00    -0.296 OA
ATOM     34  H   UNL d   1     -22.264  14.788   2.930  0.00  0.00     0.232 HD
ENDBRANCH  30  33
ENDBRANCH  29  30
ENDBRANCH  28  29
ENDBRANCH  26  28
ENDBRANCH  23  24
ENDBRANCH  22  23
ENDBRANCH  20  22
ENDBRANCH  18  20
BRANCH  13  35
ATOM     35  O   UNL d   1     -20.906  14.478  10.562  0.00  0.00    -0.395 OA
ATOM     36  H   UNL d   1     -21.574  15.019  10.115  0.00  0.00     0.210 HD
ENDBRANCH  13  35
BRANCH  10  37
ATOM     37  O   UNL d   1     -19.315  10.512  12.999  0.00  0.00    -0.395 OA
ATOM     38  H   UNL d   1     -18.834  10.335  13.822  0.00  0.00     0.210 HD
ENDBRANCH  10  37
BRANCH   1  39
ATOM     39  O   UNL d   1     -17.186  14.156  15.654  0.00  0.00    -0.396 OA
ATOM     40  H   UNL d   1     -17.465  13.356  16.132  0.00  0.00     0.210 HD
ENDBRANCH   1  39
TORSDOF 11
ENDMDL
MODEL 8
REMARK VINA RESULT:      -6.8     20.735     25.314
REMARK  11 active torsions:
REMARK  status: ('A' for Active; 'I' for Inactive)
REMARK    1  A    between atoms: C_2  and  O_1 
REMARK    2  A    between atoms: C_11  and  O_14 
REMARK    3  A    between atoms: C_15  and  O_17 
REMARK    4  A    between atoms: C_23  and  C_21 
REMARK    5  A    between atoms: C_23  and  C_24 
REMARK    6  A    between atoms: C_24  and  C_26 
REMARK    7  A    between atoms: C_26  and  C_27 
REMARK       I    between atoms: C_27  and  N_28 
REMARK    8  A    between atoms: N_28  and  C_30 
REMARK    9  A    between atoms: C_30  and  C_31 
REMARK   10  A    between atoms: C_31  and  S_32 
REMARK   11  A    between atoms: S_32  and  O_35 
ROOT
ATOM      1  C   UNL d   1      -5.856  -3.176   5.433  0.00  0.00     0.118 C 
ATOM      2  C   UNL d   1      -5.819  -4.693   5.306  0.00  0.00     0.032 C 
ATOM      3  C   UNL d   1      -6.777  -2.743   6.566  0.00  0.00     0.037 C 
ATOM      4  C   UNL d   1      -5.397  -5.335   6.622  0.00  0.00     0.012 C 
ATOM      5  C   UNL d   1      -6.419  -3.405   7.910  0.00  0.00    -0.001 C 
ATOM      6  C   UNL d   1      -6.320  -4.966   7.816  0.00  0.00    -0.036 C 
ATOM      7  C   UNL d   1      -7.383  -2.934   9.017  0.00  0.00     0.037 C 
ATOM      8  C   UNL d   1      -5.623  -5.509   9.094  0.00  0.00     0.016 C 
ATOM      9  C   UNL d   1      -7.761  -5.574   7.650  0.00  0.00     0.003 C 
ATOM     10  C   UNL d   1      -8.764  -3.582   8.972  0.00  0.00     0.123 C 
ATOM     11  C   UNL d   1      -7.781  -7.120   7.470  0.00  0.00     0.038 C 
ATOM     12  C   UNL d   1      -8.699  -5.113   8.802  0.00  0.00     0.024 C 
ATOM     13  C   UNL d   1      -9.187  -7.762   7.442  0.00  0.00     0.127 C 
ATOM     14  C   UNL d   1     -10.078  -5.743   8.582  0.00  0.00     0.003 C 
ATOM     15  C   UNL d   1     -10.058  -7.293   8.636  0.00  0.00    -0.010 C 
ATOM     16  C   UNL d   1     -11.156  -5.324   9.560  0.00  0.00     0.006 C 
ATOM     17  C   UNL d   1      -9.446  -7.862   9.948  0.00  0.00     0.018 C 
ATOM     18  C   UNL d   1     -11.608  -7.583   8.599  0.00  0.00     0.000 C 
ATOM     19  C   UNL d   1     -12.168  -6.472   9.537  0.00  0.00     0.006 C 
ENDROOT
BRANCH  18  20
ATOM     20  C   UNL d   1     -12.075  -9.017   9.026  0.00  0.00    -0.013 C 
ATOM     21  C   UNL d   1     -11.557 -10.076   8.049  0.00  0.00     0.010 C 
BRANCH  20  22
ATOM     22  C   UNL d   1     -13.615  -9.185   9.183  0.00  0.00     0.014 C 
BRANCH  22  23
ATOM     23  C   UNL d   1     -14.049 -10.553   9.749  0.00  0.00     0.103 C 
BRANCH  23  24
ATOM     24  C   UNL d   1     -15.014 -11.380   8.906  0.00  0.00     0.217 C 
ATOM     25  O   UNL d   1     -15.619 -12.364   9.309  0.00  0.00    -0.274 OA
ATOM     26  N   UNL d   1     -15.118 -10.890   7.615  0.00  0.00    -0.360 N 
ATOM     27  H   UNL d   1     -14.396 -10.249   7.306  0.00  0.00     0.162 HD
BRANCH  26  28
ATOM     28  C   UNL d   1     -15.877 -11.636   6.624  0.00  0.00     0.139 C 
BRANCH  28  29
ATOM     29  C   UNL d   1     -16.737 -10.754   5.737  0.00  0.00     0.175 C 
BRANCH  29  30
ATOM     30  S   UNL d   1     -17.929  -9.903   6.736  0.00  0.00     0.095 S 
ATOM     31  O   UNL d   1     -18.973  -9.365   5.886  0.00  0.00    -0.601 OA
ATOM     32  O   UNL d   1     -18.198 -10.646   7.931  0.00  0.00    -0.601 OA
BRANCH  30  33
ATOM     33  O   UNL d   1     -17.006  -8.628   7.125  0.00  0.00    -0.296 OA
ATOM     34  H   UNL d   1     -16.444  -8.880   7.890  0.00  0.00     0.232 HD
ENDBRANCH  30  33
ENDBRANCH  29  30
ENDBRANCH  28  29
ENDBRANCH  26  28
ENDBRANCH  23  24
ENDBRANCH  22  23
ENDBRANCH  20  22
ENDBRANCH  18  20
BRANCH  13  35
ATOM     35  O   UNL d   1      -9.816  -7.516   6.187  0.00  0.00    -0.395 OA
ATOM     36  H   UNL d   1      -9.384  -8.046   5.500  0.00  0.00     0.210 HD
ENDBRANCH  13  35
BRANCH  10  37
ATOM     37  O   UNL d   1      -9.572  -2.945   7.989  0.00  0.00    -0.395 OA
ATOM     38  H   UNL d   1     -10.375  -3.468   7.842  0.00  0.00     0.210 HD
ENDBRANCH  10  37
BRANCH   1  39
ATOM     39  O   UNL d   1      -6.336  -2.632   4.208  0.00  0.00    -0.396 OA
ATOM     40  H   UNL d   1      -5.908  -1.767   4.083  0.00  0.00     0.210 HD
ENDBRANCH   1  39
TORSDOF 11
ENDMDL
MODEL 9
REMARK VINA RESULT:      -6.6     44.517     46.444
REMARK  11 active torsions:
REMARK  status: ('A' for Active; 'I' for Inactive)
REMARK    1  A    between atoms: C_2  and  O_1 
REMARK    2  A    between atoms: C_11  and  O_14 
REMARK    3  A    between atoms: C_15  and  O_17 
REMARK    4  A    between atoms: C_23  and  C_21 
REMARK    5  A    between atoms: C_23  and  C_24 
REMARK    6  A    between atoms: C_24  and  C_26 
REMARK    7  A    between atoms: C_26  and  C_27 
REMARK       I    between atoms: C_27  and  N_28 
REMARK    8  A    between atoms: N_28  and  C_30 
REMARK    9  A    between atoms: C_30  and  C_31 
REMARK   10  A    between atoms: C_31  and  S_32 
REMARK   11  A    between atoms: S_32  and  O_35 
ROOT
ATOM      1  C   UNL d   1     -13.607   8.078 -34.046  0.00  0.00     0.118 C 
ATOM      2  C   UNL d   1     -14.272   9.448 -34.034  0.00  0.00     0.032 C 
ATOM      3  C   UNL d   1     -13.947   7.292 -32.786  0.00  0.00     0.037 C 
ATOM      4  C   UNL d   1     -15.780   9.316 -33.870  0.00  0.00     0.012 C 
ATOM      5  C   UNL d   1     -15.465   7.173 -32.551  0.00  0.00    -0.001 C 
ATOM      6  C   UNL d   1     -16.199   8.556 -32.579  0.00  0.00    -0.036 C 
ATOM      7  C   UNL d   1     -15.749   6.373 -31.265  0.00  0.00     0.037 C 
ATOM      8  C   UNL d   1     -17.730   8.317 -32.689  0.00  0.00     0.016 C 
ATOM      9  C   UNL d   1     -15.840   9.369 -31.281  0.00  0.00     0.003 C 
ATOM     10  C   UNL d   1     -15.527   7.154 -29.972  0.00  0.00     0.123 C 
ATOM     11  C   UNL d   1     -16.456  10.798 -31.236  0.00  0.00     0.038 C 
ATOM     12  C   UNL d   1     -16.174   8.552 -30.001  0.00  0.00     0.024 C 
ATOM     13  C   UNL d   1     -16.235  11.568 -29.914  0.00  0.00     0.127 C 
ATOM     14  C   UNL d   1     -15.806   9.400 -28.779  0.00  0.00     0.003 C 
ATOM     15  C   UNL d   1     -16.623  10.716 -28.678  0.00  0.00    -0.010 C 
ATOM     16  C   UNL d   1     -15.974   8.724 -27.434  0.00  0.00     0.006 C 
ATOM     17  C   UNL d   1     -18.163  10.494 -28.695  0.00  0.00     0.018 C 
ATOM     18  C   UNL d   1     -16.169  11.205 -27.250  0.00  0.00     0.000 C 
ATOM     19  C   UNL d   1     -16.152   9.874 -26.440  0.00  0.00     0.006 C 
ENDROOT
BRANCH  18  20
ATOM     20  C   UNL d   1     -17.043  12.311 -26.564  0.00  0.00    -0.013 C 
ATOM     21  C   UNL d   1     -16.482  13.707 -26.847  0.00  0.00     0.010 C 
BRANCH  20  22
ATOM     22  C   UNL d   1     -17.225  12.142 -25.027  0.00  0.00     0.014 C 
BRANCH  22  23
ATOM     23  C   UNL d   1     -18.640  12.484 -24.515  0.00  0.00     0.103 C 
BRANCH  23  24
ATOM     24  C   UNL d   1     -19.131  11.737 -23.279  0.00  0.00     0.217 C 
ATOM     25  O   UNL d   1     -18.400  11.209 -22.452  0.00  0.00    -0.274 OA
ATOM     26  N   UNL d   1     -20.514  11.714 -23.208  0.00  0.00    -0.360 N 
ATOM     27  H   UNL d   1     -21.023  11.941 -24.055  0.00  0.00     0.162 HD
BRANCH  26  28
ATOM     28  C   UNL d   1     -21.166  10.920 -22.179  0.00  0.00     0.139 C 
BRANCH  28  29
ATOM     29  C   UNL d   1     -22.164   9.921 -22.733  0.00  0.00     0.175 C 
BRANCH  29  30
ATOM     30  S   UNL d   1     -21.342   8.381 -23.043  0.00  0.00     0.095 S 
ATOM     31  O   UNL d   1     -22.002   7.325 -22.297  0.00  0.00    -0.601 OA
ATOM     32  O   UNL d   1     -21.005   8.267 -24.430  0.00  0.00    -0.601 OA
BRANCH  30  33
ATOM     33  O   UNL d   1     -19.986   8.695 -22.212  0.00  0.00    -0.296 OA
ATOM     34  H   UNL d   1     -19.323   8.006 -22.438  0.00  0.00     0.232 HD
ENDBRANCH  30  33
ENDBRANCH  29  30
ENDBRANCH  28  29
ENDBRANCH  26  28
ENDBRANCH  23  24
ENDBRANCH  22  23
ENDBRANCH  20  22
ENDBRANCH  18  20
BRANCH  13  35
ATOM     35  O   UNL d   1     -14.893  12.044 -29.839  0.00  0.00    -0.395 OA
ATOM     36  H   UNL d   1     -14.474  11.965 -30.709  0.00  0.00     0.210 HD
ENDBRANCH  13  35
BRANCH  10  37
ATOM     37  O   UNL d   1     -14.141   7.187 -29.651  0.00  0.00    -0.395 OA
ATOM     38  H   UNL d   1     -13.998   6.773 -28.787  0.00  0.00     0.210 HD
ENDBRANCH  10  37
BRANCH   1  39
ATOM     39  O   UNL d   1     -12.197   8.260 -34.115  0.00  0.00    -0.396 OA
ATOM     40  H   UNL d   1     -11.821   7.479 -34.558  0.00  0.00     0.210 HD
ENDBRANCH   1  39
TORSDOF 11
ENDMDL
