MODEL 1
REMARK VINA RESULT:      -5.3      0.000      0.000
REMARK  5 active torsions:
REMARK  status: ('A' for Active; 'I' for Inactive)
REMARK    1  A    between atoms: N_1  and  CA_2 
REMARK    2  A    between atoms: CA_2  and  CB_4 
REMARK    3  A    between atoms: CA_2  and  C_3 
REMARK    4  A    between atoms: C_3  and  O_6 
REMARK    5  A    between atoms: CB_4  and  CG_7 
ROOT
ATOM      1  CA  HIS d   1     -19.708  15.290  -2.488  0.00  0.00     0.320 C 
ENDROOT
BRANCH   1   2
ATOM      2  N   HIS d   1     -18.224  15.074  -2.440  0.00  0.00     0.093 N 
ATOM      3  H1  HIS d   1     -18.012  14.695  -1.508  0.00  0.00     0.314 HD
ATOM      4  H2  HIS d   1     -17.771  15.996  -2.417  0.00  0.00     0.314 HD
ENDBRANCH   1   2
BRANCH   1   5
ATOM      5  CB  HIS d   1     -20.358  15.335  -1.095  0.00  0.00     0.105 C 
BRANCH   5   6
ATOM      6  CG  HIS d   1     -20.990  14.040  -0.714  0.00  0.00     0.030 A 
ATOM      7  CD2 HIS d   1     -20.547  12.737  -0.797  0.00  0.00     0.143 A 
ATOM      8  NE2 HIS d   1     -21.500  11.869  -0.335  0.00  0.00    -0.254 NA
ATOM      9  CE1 HIS d   1     -22.499  12.623   0.058  0.00  0.00     0.207 A 
ATOM     10  ND1 HIS d   1     -22.237  13.948  -0.145  0.00  0.00    -0.353 N 
ATOM     11  HD1 HIS d   1     -22.854  14.711   0.096  0.00  0.00     0.166 HD
ENDBRANCH   5   6
ENDBRANCH   1   5
BRANCH   1  12
ATOM     12  C   HIS d   1     -19.982  16.614  -3.216  0.00  0.00     0.174 C 
ATOM     13  OXT HIS d   1     -19.277  17.609  -3.154  0.00  0.00    -0.648 OA
BRANCH  12  14
ATOM     14  O   HIS d   1     -21.128  16.551  -3.943  0.00  0.00    -0.775 OA
ATOM     15  H   HIS d   1     -21.059  15.718  -4.478  0.00  0.00     0.167 HD
ENDBRANCH  12  14
ENDBRANCH   1  12
TORSDOF 5
ENDMDL
MODEL 2
REMARK VINA RESULT:      -5.1      3.017      4.612
REMARK  5 active torsions:
REMARK  status: ('A' for Active; 'I' for Inactive)
REMARK    1  A    between atoms: N_1  and  CA_2 
REMARK    2  A    between atoms: CA_2  and  CB_4 
REMARK    3  A    between atoms: CA_2  and  C_3 
REMARK    4  A    between atoms: C_3  and  O_6 
REMARK    5  A    between atoms: CB_4  and  CG_7 
ROOT
ATOM      1  CA  HIS d   1     -21.479  14.464   0.100  0.00  0.00     0.320 C 
ENDROOT
BRANCH   1   2
ATOM      2  N   HIS d   1     -21.515  14.736   1.576  0.00  0.00     0.093 N 
ATOM      3  H1  HIS d   1     -22.461  15.078   1.788  0.00  0.00     0.314 HD
ATOM      4  H2  HIS d   1     -20.930  15.560   1.759  0.00  0.00     0.314 HD
ENDBRANCH   1   2
BRANCH   1   5
ATOM      5  CB  HIS d   1     -20.058  14.503  -0.487  0.00  0.00     0.105 C 
BRANCH   5   6
ATOM      6  CG  HIS d   1     -19.989  15.258  -1.771  0.00  0.00     0.030 A 
ATOM      7  CD2 HIS d   1     -18.962  15.463  -2.667  0.00  0.00     0.143 A 
ATOM      8  NE2 HIS d   1     -19.373  16.254  -3.706  0.00  0.00    -0.254 NA
ATOM      9  CE1 HIS d   1     -20.640  16.504  -3.475  0.00  0.00     0.207 A 
ATOM     10  ND1 HIS d   1     -21.064  15.919  -2.316  0.00  0.00    -0.353 N 
ATOM     11  HD1 HIS d   1     -22.003  15.962  -1.946  0.00  0.00     0.166 HD
ENDBRANCH   5   6
ENDBRANCH   1   5
BRANCH   1  12
ATOM     12  C   HIS d   1     -22.092  13.080  -0.152  0.00  0.00     0.174 C 
ATOM     13  OXT HIS d   1     -21.477  12.096  -0.533  0.00  0.00    -0.648 OA
BRANCH  12  14
ATOM     14  O   HIS d   1     -23.429  13.078   0.092  0.00  0.00    -0.775 OA
ATOM     15  H   HIS d   1     -23.853  12.760  -0.746  0.00  0.00     0.167 HD
ENDBRANCH  12  14
ENDBRANCH   1  12
TORSDOF 5
ENDMDL
MODEL 3
REMARK VINA RESULT:      -4.9      2.751      4.555
REMARK  5 active torsions:
REMARK  status: ('A' for Active; 'I' for Inactive)
REMARK    1  A    between atoms: N_1  and  CA_2 
REMARK    2  A    between atoms: CA_2  and  CB_4 
REMARK    3  A    between atoms: CA_2  and  C_3 
REMARK    4  A    between atoms: C_3  and  O_6 
REMARK    5  A    between atoms: CB_4  and  CG_7 
ROOT
ATOM      1  CA  HIS d   1     -20.277  13.630   0.395  0.00  0.00     0.320 C 
ENDROOT
BRANCH   1   2
ATOM      2  N   HIS d   1     -20.434  12.277   1.024  0.00  0.00     0.093 N 
ATOM      3  H1  HIS d   1     -21.366  12.262   1.458  0.00  0.00     0.314 HD
ATOM      4  H2  HIS d   1     -19.807  12.232   1.836  0.00  0.00     0.314 HD
ENDBRANCH   1   2
BRANCH   1   5
ATOM      5  CB  HIS d   1     -20.624  13.644  -1.104  0.00  0.00     0.105 C 
BRANCH   5   6
ATOM      6  CG  HIS d   1     -20.026  14.807  -1.820  0.00  0.00     0.030 A 
ATOM      7  CD2 HIS d   1     -20.523  16.054  -2.133  0.00  0.00     0.143 A 
ATOM      8  NE2 HIS d   1     -19.599  16.787  -2.827  0.00  0.00    -0.254 NA
ATOM      9  CE1 HIS d   1     -18.537  16.020  -2.912  0.00  0.00     0.207 A 
ATOM     10  ND1 HIS d   1     -18.743  14.811  -2.312  0.00  0.00    -0.353 N 
ATOM     11  HD1 HIS d   1     -18.061  14.068  -2.241  0.00  0.00     0.166 HD
ENDBRANCH   5   6
ENDBRANCH   1   5
BRANCH   1  12
ATOM     12  C   HIS d   1     -21.191  14.618   1.134  0.00  0.00     0.174 C 
ATOM     13  OXT HIS d   1     -20.820  15.429   1.968  0.00  0.00    -0.648 OA
BRANCH  12  14
ATOM     14  O   HIS d   1     -22.487  14.473   0.754  0.00  0.00    -0.775 OA
ATOM     15  H   HIS d   1     -22.972  15.235   1.164  0.00  0.00     0.167 HD
ENDBRANCH  12  14
ENDBRANCH   1  12
TORSDOF 5
ENDMDL
MODEL 4
REMARK VINA RESULT:      -4.9     39.418     40.334
REMARK  5 active torsions:
REMARK  status: ('A' for Active; 'I' for Inactive)
REMARK    1  A    between atoms: N_1  and  CA_2 
REMARK    2  A    between atoms: CA_2  and  CB_4 
REMARK    3  A    between atoms: CA_2  and  C_3 
REMARK    4  A    between atoms: C_3  and  O_6 
REMARK    5  A    between atoms: CB_4  and  CG_7 
ROOT
ATOM      1  CA  HIS d   1      -2.253   1.209  32.870  0.00  0.00     0.320 C 
ENDROOT
BRANCH   1   2
ATOM      2  N   HIS d   1      -2.462   0.332  34.071  0.00  0.00     0.093 N 
ATOM      3  H1  HIS d   1      -1.734   0.588  34.750  0.00  0.00     0.314 HD
ATOM      4  H2  HIS d   1      -2.202  -0.626  33.810  0.00  0.00     0.314 HD
ENDBRANCH   1   2
BRANCH   1   5
ATOM      5  CB  HIS d   1      -3.335   2.290  32.715  0.00  0.00     0.105 C 
BRANCH   5   6
ATOM      6  CG  HIS d   1      -4.374   1.922  31.711  0.00  0.00     0.030 A 
ATOM      7  CD2 HIS d   1      -5.138   2.682  30.851  0.00  0.00     0.143 A 
ATOM      8  NE2 HIS d   1      -5.984   1.890  30.122  0.00  0.00    -0.254 NA
ATOM      9  CE1 HIS d   1      -5.722   0.661  30.498  0.00  0.00     0.207 A 
ATOM     10  ND1 HIS d   1      -4.750   0.625  31.456  0.00  0.00    -0.353 N 
ATOM     11  HD1 HIS d   1      -4.377  -0.212  31.881  0.00  0.00     0.166 HD
ENDBRANCH   5   6
ENDBRANCH   1   5
BRANCH   1  12
ATOM     12  C   HIS d   1      -0.880   1.884  32.996  0.00  0.00     0.174 C 
ATOM     13  OXT HIS d   1       0.018   1.812  32.171  0.00  0.00    -0.648 OA
BRANCH  12  14
ATOM     14  O   HIS d   1      -0.772   2.574  34.162  0.00  0.00    -0.775 OA
ATOM     15  H   HIS d   1      -1.691   2.611  34.535  0.00  0.00     0.167 HD
ENDBRANCH  12  14
ENDBRANCH   1  12
TORSDOF 5
ENDMDL
MODEL 5
REMARK VINA RESULT:      -4.9     23.293     24.650
REMARK  5 active torsions:
REMARK  status: ('A' for Active; 'I' for Inactive)
REMARK    1  A    between atoms: N_1  and  CA_2 
REMARK    2  A    between atoms: CA_2  and  CB_4 
REMARK    3  A    between atoms: CA_2  and  C_3 
REMARK    4  A    between atoms: C_3  and  O_6 
REMARK    5  A    between atoms: CB_4  and  CG_7 
ROOT
ATOM      1  CA  HIS d   1     -10.981  -4.955   9.827  0.00  0.00     0.320 C 
ENDROOT
BRANCH   1   2
ATOM      2  N   HIS d   1     -11.372  -5.500  11.170  0.00  0.00     0.093 N 
ATOM      3  H1  HIS d   1     -10.587  -6.081  11.490  0.00  0.00     0.314 HD
ATOM      4  H2  HIS d   1     -12.120  -6.189  11.025  0.00  0.00     0.314 HD
ENDBRANCH   1   2
BRANCH   1   5
ATOM      5  CB  HIS d   1      -9.513  -5.232   9.466  0.00  0.00     0.105 C 
BRANCH   5   6
ATOM      6  CG  HIS d   1      -8.814  -4.026   8.936  0.00  0.00     0.030 A 
ATOM      7  CD2 HIS d   1      -7.551  -3.520   9.155  0.00  0.00     0.143 A 
ATOM      8  NE2 HIS d   1      -7.363  -2.360   8.453  0.00  0.00    -0.254 NA
ATOM      9  CE1 HIS d   1      -8.476  -2.172   7.785  0.00  0.00     0.207 A 
ATOM     10  ND1 HIS d   1      -9.387  -3.157   8.039  0.00  0.00    -0.353 N 
ATOM     11  HD1 HIS d   1     -10.306  -3.227   7.625  0.00  0.00     0.166 HD
ENDBRANCH   5   6
ENDBRANCH   1   5
BRANCH   1  12
ATOM     12  C   HIS d   1     -11.891  -5.587   8.764  0.00  0.00     0.174 C 
ATOM     13  OXT HIS d   1     -12.685  -6.493   8.967  0.00  0.00    -0.648 OA
BRANCH  12  14
ATOM     14  O   HIS d   1     -11.698  -5.019   7.546  0.00  0.00    -0.775 OA
ATOM     15  H   HIS d   1     -10.943  -5.515   7.137  0.00  0.00     0.167 HD
ENDBRANCH  12  14
ENDBRANCH   1  12
TORSDOF 5
ENDMDL
MODEL 6
REMARK VINA RESULT:      -4.7     20.066     21.339
REMARK  5 active torsions:
REMARK  status: ('A' for Active; 'I' for Inactive)
REMARK    1  A    between atoms: N_1  and  CA_2 
REMARK    2  A    between atoms: CA_2  and  CB_4 
REMARK    3  A    between atoms: CA_2  and  C_3 
REMARK    4  A    between atoms: C_3  and  O_6 
REMARK    5  A    between atoms: CB_4  and  CG_7 
ROOT
ATOM      1  CA  HIS d   1     -28.871   6.354  15.573  0.00  0.00     0.320 C 
ENDROOT
BRANCH   1   2
ATOM      2  N   HIS d   1     -29.992   6.960  14.780  0.00  0.00     0.093 N 
ATOM      3  H1  HIS d   1     -29.616   7.812  14.346  0.00  0.00     0.314 HD
ATOM      4  H2  HIS d   1     -30.683   7.330  15.443  0.00  0.00     0.314 HD
ENDBRANCH   1   2
BRANCH   1   5
ATOM      5  CB  HIS d   1     -28.650   7.040  16.932  0.00  0.00     0.105 C 
BRANCH   5   6
ATOM      6  CG  HIS d   1     -27.841   8.288  16.819  0.00  0.00     0.030 A 
ATOM      7  CD2 HIS d   1     -27.250   8.911  15.741  0.00  0.00     0.143 A 
ATOM      8  NE2 HIS d   1     -26.584  10.039  16.136  0.00  0.00    -0.254 NA
ATOM      9  CE1 HIS d   1     -26.789  10.132  17.428  0.00  0.00     0.207 A 
ATOM     10  ND1 HIS d   1     -27.550   9.097  17.891  0.00  0.00    -0.353 N 
ATOM     11  HD1 HIS d   1     -27.847   8.969  18.848  0.00  0.00     0.166 HD
ENDBRANCH   5   6
ENDBRANCH   1   5
BRANCH   1  12
ATOM     12  C   HIS d   1     -29.189   4.869  15.804  0.00  0.00     0.174 C 
ATOM     13  OXT HIS d   1     -29.984   4.439  16.624  0.00  0.00    -0.648 OA
BRANCH  12  14
ATOM     14  O   HIS d   1     -28.458   4.073  14.980  0.00  0.00    -0.775 OA
ATOM     15  H   HIS d   1     -28.442   4.539  14.104  0.00  0.00     0.167 HD
ENDBRANCH  12  14
ENDBRANCH   1  12
TORSDOF 5
ENDMDL
MODEL 7
REMARK VINA RESULT:      -4.5     38.272     39.132
REMARK  5 active torsions:
REMARK  status: ('A' for Active; 'I' for Inactive)
REMARK    1  A    between atoms: N_1  and  CA_2 
REMARK    2  A    between atoms: CA_2  and  CB_4 
REMARK    3  A    between atoms: CA_2  and  C_3 
REMARK    4  A    between atoms: C_3  and  O_6 
REMARK    5  A    between atoms: CB_4  and  CG_7 
ROOT
ATOM      1  CA  HIS d   1      11.532   2.304  14.488  0.00  0.00     0.320 C 
ENDROOT
BRANCH   1   2
ATOM      2  N   HIS d   1      11.667   2.784  13.073  0.00  0.00     0.093 N 
ATOM      3  H1  HIS d   1      12.586   3.238  13.003  0.00  0.00     0.314 HD
ATOM      4  H2  HIS d   1      11.016   3.567  12.942  0.00  0.00     0.314 HD
ENDBRANCH   1   2
BRANCH   1   5
ATOM      5  CB  HIS d   1      12.799   1.610  15.015  0.00  0.00     0.105 C 
BRANCH   5   6
ATOM      6  CG  HIS d   1      12.535   0.226  15.501  0.00  0.00     0.030 A 
ATOM      7  CD2 HIS d   1      11.703  -0.265  16.485  0.00  0.00     0.143 A 
ATOM      8  NE2 HIS d   1      11.815  -1.625  16.585  0.00  0.00    -0.254 NA
ATOM      9  CE1 HIS d   1      12.675  -1.973  15.656  0.00  0.00     0.207 A 
ATOM     10  ND1 HIS d   1      13.137  -0.888  14.968  0.00  0.00    -0.353 N 
ATOM     11  HD1 HIS d   1      13.793  -0.917  14.200  0.00  0.00     0.166 HD
ENDBRANCH   5   6
ENDBRANCH   1   5
BRANCH   1  12
ATOM     12  C   HIS d   1      11.209   3.512  15.380  0.00  0.00     0.174 C 
ATOM     13  OXT HIS d   1      11.251   3.516  16.600  0.00  0.00    -0.648 OA
BRANCH  12  14
ATOM     14  O   HIS d   1      10.853   4.593  14.639  0.00  0.00    -0.775 OA
ATOM     15  H   HIS d   1      11.404   5.344  14.980  0.00  0.00     0.167 HD
ENDBRANCH  12  14
ENDBRANCH   1  12
TORSDOF 5
ENDMDL
MODEL 8
REMARK VINA RESULT:      -4.5     19.848     21.729
REMARK  5 active torsions:
REMARK  status: ('A' for Active; 'I' for Inactive)
REMARK    1  A    between atoms: N_1  and  CA_2 
REMARK    2  A    between atoms: CA_2  and  CB_4 
REMARK    3  A    between atoms: CA_2  and  C_3 
REMARK    4  A    between atoms: C_3  and  O_6 
REMARK    5  A    between atoms: CB_4  and  CG_7 
ROOT
ATOM      1  CA  HIS d   1     -28.831   5.641  17.263  0.00  0.00     0.320 C 
ENDROOT
BRANCH   1   2
ATOM      2  N   HIS d   1     -28.334   5.168  18.598  0.00  0.00     0.093 N 
ATOM      3  H1  HIS d   1     -28.914   4.360  18.857  0.00  0.00     0.314 HD
ATOM      4  H2  HIS d   1     -28.597   5.870  19.300  0.00  0.00     0.314 HD
ENDBRANCH   1   2
BRANCH   1   5
ATOM      5  CB  HIS d   1     -27.698   6.007  16.291  0.00  0.00     0.105 C 
BRANCH   5   6
ATOM      6  CG  HIS d   1     -27.801   7.408  15.790  0.00  0.00     0.030 A 
ATOM      7  CD2 HIS d   1     -27.198   8.580  16.194  0.00  0.00     0.143 A 
ATOM      8  NE2 HIS d   1     -27.625   9.635  15.434  0.00  0.00    -0.254 NA
ATOM      9  CE1 HIS d   1     -28.449   9.119  14.553  0.00  0.00     0.207 A 
ATOM     10  ND1 HIS d   1     -28.587   7.771  14.723  0.00  0.00    -0.353 N 
ATOM     11  HD1 HIS d   1     -29.157   7.163  14.152  0.00  0.00     0.166 HD
ENDBRANCH   5   6
ENDBRANCH   1   5
BRANCH   1  12
ATOM     12  C   HIS d   1     -29.689   4.529  16.644  0.00  0.00     0.174 C 
ATOM     13  OXT HIS d   1     -29.924   4.403  15.452  0.00  0.00    -0.648 OA
BRANCH  12  14
ATOM     14  O   HIS d   1     -30.177   3.692  17.597  0.00  0.00    -0.775 OA
ATOM     15  H   HIS d   1     -29.383   3.355  18.087  0.00  0.00     0.167 HD
ENDBRANCH  12  14
ENDBRANCH   1  12
TORSDOF 5
ENDMDL
MODEL 9
REMARK VINA RESULT:      -4.4     25.047     26.292
REMARK  5 active torsions:
REMARK  status: ('A' for Active; 'I' for Inactive)
REMARK    1  A    between atoms: N_1  and  CA_2 
REMARK    2  A    between atoms: CA_2  and  CB_4 
REMARK    3  A    between atoms: CA_2  and  C_3 
REMARK    4  A    between atoms: C_3  and  O_6 
REMARK    5  A    between atoms: CB_4  and  CG_7 
ROOT
ATOM      1  CA  HIS d   1     -10.781  -5.311  10.108  0.00  0.00     0.320 C 
ENDROOT
BRANCH   1   2
ATOM      2  N   HIS d   1     -10.694  -6.483  11.041  0.00  0.00     0.093 N 
ATOM      3  H1  HIS d   1      -9.878  -6.318  11.645  0.00  0.00     0.314 HD
ATOM      4  H2  HIS d   1     -10.406  -7.302  10.492  0.00  0.00     0.314 HD
ENDBRANCH   1   2
BRANCH   1   5
ATOM      5  CB  HIS d   1      -9.439  -4.971   9.437  0.00  0.00     0.105 C 
BRANCH   5   6
ATOM      6  CG  HIS d   1      -8.604  -6.179   9.180  0.00  0.00     0.030 A 
ATOM      7  CD2 HIS d   1      -8.706  -7.191   8.250  0.00  0.00     0.143 A 
ATOM      8  NE2 HIS d   1      -7.703  -8.108   8.417  0.00  0.00    -0.254 NA
ATOM      9  CE1 HIS d   1      -6.974  -7.652   9.408  0.00  0.00     0.207 A 
ATOM     10  ND1 HIS d   1      -7.475  -6.482   9.902  0.00  0.00    -0.353 N 
ATOM     11  HD1 HIS d   1      -7.071  -5.943  10.655  0.00  0.00     0.166 HD
ENDBRANCH   5   6
ENDBRANCH   1   5
BRANCH   1  12
ATOM     12  C   HIS d   1     -11.821  -5.630   9.025  0.00  0.00     0.174 C 
ATOM     13  OXT HIS d   1     -12.715  -6.456   9.130  0.00  0.00    -0.648 OA
BRANCH  12  14
ATOM     14  O   HIS d   1     -11.620  -4.881   7.910  0.00  0.00    -0.775 OA
ATOM     15  H   HIS d   1     -11.264  -4.013   8.232  0.00  0.00     0.167 HD
ENDBRANCH  12  14
ENDBRANCH   1  12
TORSDOF 5
ENDMDL
