MODEL 1
REMARK VINA RESULT:      -4.2      0.000      0.000
REMARK  4 active torsions:
REMARK  status: ('A' for Active; 'I' for Inactive)
REMARK    1  A    between atoms: N_1  and  C_2 
REMARK    2  A    between atoms: C_2  and  C_3 
REMARK    3  A    between atoms: C_3  and  S_4 
REMARK    4  A    between atoms: S_4  and  O_7 
ROOT
ATOM      1  C   UNL d   1      25.455  -2.957 -10.872  0.00  0.00     0.185 C 
ENDROOT
BRANCH   1   2
ATOM      2  C   UNL d   1      25.886  -4.411 -10.881  0.00  0.00     0.283 C 
BRANCH   2   3
ATOM      3  N   UNL d   1      24.745  -5.280 -10.578  0.00  0.00     0.079 N 
ATOM      4  H   UNL d   1      23.879  -4.798 -10.827  0.00  0.00     0.312 HD
ATOM      5  H   UNL d   1      24.689  -5.448  -9.573  0.00  0.00     0.312 HD
ENDBRANCH   2   3
ENDBRANCH   1   2
BRANCH   1   6
ATOM      6  S   UNL d   1      25.207  -2.379  -9.207  0.00  0.00     0.095 S 
ATOM      7  O   UNL d   1      26.076  -3.108  -8.307  0.00  0.00    -0.601 OA
ATOM      8  O   UNL d   1      25.103  -0.941  -9.198  0.00  0.00    -0.601 OA
BRANCH   6   9
ATOM      9  O   UNL d   1      23.733  -3.000  -9.001  0.00  0.00    -0.296 OA
ATOM     10  H   UNL d   1      23.300  -2.543  -8.248  0.00  0.00     0.232 HD
ENDBRANCH   6   9
ENDBRANCH   1   6
TORSDOF 4
ENDMDL
MODEL 2
REMARK VINA RESULT:      -4.0      1.214      2.067
REMARK  4 active torsions:
REMARK  status: ('A' for Active; 'I' for Inactive)
REMARK    1  A    between atoms: N_1  and  C_2 
REMARK    2  A    between atoms: C_2  and  C_3 
REMARK    3  A    between atoms: C_3  and  S_4 
REMARK    4  A    between atoms: S_4  and  O_7 
ROOT
ATOM      1  C   UNL d   1      25.113  -4.236 -10.457  0.00  0.00     0.185 C 
ENDROOT
BRANCH   1   2
ATOM      2  C   UNL d   1      26.161  -5.325 -10.578  0.00  0.00     0.283 C 
BRANCH   2   3
ATOM      3  N   UNL d   1      25.603  -6.493 -11.265  0.00  0.00     0.079 N 
ATOM      4  H   UNL d   1      26.358  -7.144 -11.489  0.00  0.00     0.312 HD
ATOM      5  H   UNL d   1      25.203  -6.215 -12.161  0.00  0.00     0.312 HD
ENDBRANCH   2   3
ENDBRANCH   1   2
BRANCH   1   6
ATOM      6  S   UNL d   1      25.504  -3.125  -9.122  0.00  0.00     0.095 S 
ATOM      7  O   UNL d   1      24.326  -2.362  -8.767  0.00  0.00    -0.601 OA
ATOM      8  O   UNL d   1      26.320  -3.802  -8.145  0.00  0.00    -0.601 OA
BRANCH   6   9
ATOM      9  O   UNL d   1      26.443  -2.124  -9.970  0.00  0.00    -0.296 OA
ATOM     10  H   UNL d   1      25.875  -1.458 -10.413  0.00  0.00     0.232 HD
ENDBRANCH   6   9
ENDBRANCH   1   6
TORSDOF 4
ENDMDL
MODEL 3
REMARK VINA RESULT:      -4.0     60.138     60.647
REMARK  4 active torsions:
REMARK  status: ('A' for Active; 'I' for Inactive)
REMARK    1  A    between atoms: N_1  and  C_2 
REMARK    2  A    between atoms: C_2  and  C_3 
REMARK    3  A    between atoms: C_3  and  S_4 
REMARK    4  A    between atoms: S_4  and  O_7 
ROOT
ATOM      1  C   UNL d   1     -29.113   6.766  16.481  0.00  0.00     0.185 C 
ENDROOT
BRANCH   1   2
ATOM      2  C   UNL d   1     -29.380   7.263  15.074  0.00  0.00     0.283 C 
BRANCH   2   3
ATOM      3  N   UNL d   1     -28.355   6.762  14.154  0.00  0.00     0.079 N 
ATOM      4  H   UNL d   1     -28.790   6.530  13.259  0.00  0.00     0.312 HD
ATOM      5  H   UNL d   1     -27.966   5.887  14.507  0.00  0.00     0.312 HD
ENDBRANCH   2   3
ENDBRANCH   1   2
BRANCH   1   6
ATOM      6  S   UNL d   1     -29.153   4.987  16.544  0.00  0.00     0.095 S 
ATOM      7  O   UNL d   1     -29.311   4.555  17.916  0.00  0.00    -0.601 OA
ATOM      8  O   UNL d   1     -29.963   4.478  15.465  0.00  0.00    -0.601 OA
BRANCH   6   9
ATOM      9  O   UNL d   1     -27.601   4.744  16.177  0.00  0.00    -0.296 OA
ATOM     10  H   UNL d   1     -27.308   3.902  16.588  0.00  0.00     0.232 HD
ENDBRANCH   6   9
ENDBRANCH   1   6
TORSDOF 4
ENDMDL
MODEL 4
REMARK VINA RESULT:      -3.9     48.710     49.210
REMARK  4 active torsions:
REMARK  status: ('A' for Active; 'I' for Inactive)
REMARK    1  A    between atoms: N_1  and  C_2 
REMARK    2  A    between atoms: C_2  and  C_3 
REMARK    3  A    between atoms: C_3  and  S_4 
REMARK    4  A    between atoms: S_4  and  O_7 
ROOT
ATOM      1  C   UNL d   1     -20.185  15.819  -1.755  0.00  0.00     0.185 C 
ENDROOT
BRANCH   1   2
ATOM      2  C   UNL d   1     -19.502  14.471  -1.623  0.00  0.00     0.283 C 
BRANCH   2   3
ATOM      3  N   UNL d   1     -18.205  14.490  -2.305  0.00  0.00     0.079 N 
ATOM      4  H   UNL d   1     -18.253  15.126  -3.103  0.00  0.00     0.312 HD
ATOM      5  H   UNL d   1     -18.002  13.570  -2.697  0.00  0.00     0.312 HD
ENDBRANCH   2   3
ENDBRANCH   1   2
BRANCH   1   6
ATOM      6  S   UNL d   1     -19.709  16.626  -3.268  0.00  0.00     0.095 S 
ATOM      7  O   UNL d   1     -18.502  17.394  -3.048  0.00  0.00    -0.601 OA
ATOM      8  O   UNL d   1     -19.866  15.719  -4.377  0.00  0.00    -0.601 OA
BRANCH   6   9
ATOM      9  O   UNL d   1     -20.916  17.696  -3.307  0.00  0.00    -0.296 OA
ATOM     10  H   UNL d   1     -21.694  17.311  -2.850  0.00  0.00     0.232 HD
ENDBRANCH   6   9
ENDBRANCH   1   6
TORSDOF 4
ENDMDL
MODEL 5
REMARK VINA RESULT:      -3.8     39.275     39.678
REMARK  4 active torsions:
REMARK  status: ('A' for Active; 'I' for Inactive)
REMARK    1  A    between atoms: N_1  and  C_2 
REMARK    2  A    between atoms: C_2  and  C_3 
REMARK    3  A    between atoms: C_3  and  S_4 
REMARK    4  A    between atoms: S_4  and  O_7 
ROOT
ATOM      1  C   UNL d   1      -6.391   4.039  11.648  0.00  0.00     0.185 C 
ENDROOT
BRANCH   1   2
ATOM      2  C   UNL d   1      -6.029   5.510  11.734  0.00  0.00     0.283 C 
BRANCH   2   3
ATOM      3  N   UNL d   1      -5.988   6.102  10.394  0.00  0.00     0.079 N 
ATOM      4  H   UNL d   1      -5.064   6.506  10.233  0.00  0.00     0.312 HD
ATOM      5  H   UNL d   1      -6.645   6.881  10.336  0.00  0.00     0.312 HD
ENDBRANCH   2   3
ENDBRANCH   1   2
BRANCH   1   6
ATOM      6  S   UNL d   1      -8.135   3.832  11.356  0.00  0.00     0.095 S 
ATOM      7  O   UNL d   1      -8.778   5.128  11.327  0.00  0.00    -0.601 OA
ATOM      8  O   UNL d   1      -8.346   2.832  10.339  0.00  0.00    -0.601 OA
BRANCH   6   9
ATOM      9  O   UNL d   1      -8.498   3.188  12.791  0.00  0.00    -0.296 OA
ATOM     10  H   UNL d   1      -8.273   3.836  13.493  0.00  0.00     0.232 HD
ENDBRANCH   6   9
ENDBRANCH   1   6
TORSDOF 4
ENDMDL
MODEL 6
REMARK VINA RESULT:      -3.8     38.997     39.482
REMARK  4 active torsions:
REMARK  status: ('A' for Active; 'I' for Inactive)
REMARK    1  A    between atoms: N_1  and  C_2 
REMARK    2  A    between atoms: C_2  and  C_3 
REMARK    3  A    between atoms: C_3  and  S_4 
REMARK    4  A    between atoms: S_4  and  O_7 
ROOT
ATOM      1  C   UNL d   1      -7.355   4.428  10.105  0.00  0.00     0.185 C 
ENDROOT
BRANCH   1   2
ATOM      2  C   UNL d   1      -7.516   4.793  11.569  0.00  0.00     0.283 C 
BRANCH   2   3
ATOM      3  N   UNL d   1      -8.931   4.749  11.950  0.00  0.00     0.079 N 
ATOM      4  H   UNL d   1      -9.231   5.683  12.236  0.00  0.00     0.312 HD
ATOM      5  H   UNL d   1      -9.054   4.155  12.771  0.00  0.00     0.312 HD
ENDBRANCH   2   3
ENDBRANCH   1   2
BRANCH   1   6
ATOM      6  S   UNL d   1      -7.957   2.782   9.792  0.00  0.00     0.095 S 
ATOM      7  O   UNL d   1      -9.404   2.793   9.762  0.00  0.00    -0.601 OA
ATOM      8  O   UNL d   1      -7.158   2.156   8.767  0.00  0.00    -0.601 OA
BRANCH   6   9
ATOM      9  O   UNL d   1      -7.546   2.149  11.218  0.00  0.00    -0.296 OA
ATOM     10  H   UNL d   1      -8.365   1.946  11.721  0.00  0.00     0.232 HD
ENDBRANCH   6   9
ENDBRANCH   1   6
TORSDOF 4
ENDMDL
MODEL 7
REMARK VINA RESULT:      -3.8     33.234     33.461
REMARK  4 active torsions:
REMARK  status: ('A' for Active; 'I' for Inactive)
REMARK    1  A    between atoms: N_1  and  C_2 
REMARK    2  A    between atoms: C_2  and  C_3 
REMARK    3  A    between atoms: C_3  and  S_4 
REMARK    4  A    between atoms: S_4  and  O_7 
ROOT
ATOM      1  C   UNL d   1      -6.984   0.687 -21.757  0.00  0.00     0.185 C 
ENDROOT
BRANCH   1   2
ATOM      2  C   UNL d   1      -7.099  -0.686 -22.390  0.00  0.00     0.283 C 
BRANCH   2   3
ATOM      3  N   UNL d   1      -6.151  -0.815 -23.500  0.00  0.00     0.079 N 
ATOM      4  H   UNL d   1      -5.446  -1.515 -23.261  0.00  0.00     0.312 HD
ATOM      5  H   UNL d   1      -5.640   0.059 -23.628  0.00  0.00     0.312 HD
ENDBRANCH   2   3
ENDBRANCH   1   2
BRANCH   1   6
ATOM      6  S   UNL d   1      -5.345   0.953 -21.114  0.00  0.00     0.095 S 
ATOM      7  O   UNL d   1      -5.361   2.075 -20.200  0.00  0.00    -0.601 OA
ATOM      8  O   UNL d   1      -4.736  -0.312 -20.788  0.00  0.00    -0.601 OA
BRANCH   6   9
ATOM      9  O   UNL d   1      -4.686   1.502 -22.481  0.00  0.00    -0.296 OA
ATOM     10  H   UNL d   1      -5.326   2.104 -22.920  0.00  0.00     0.232 HD
ENDBRANCH   6   9
ENDBRANCH   1   6
TORSDOF 4
ENDMDL
MODEL 8
REMARK VINA RESULT:      -3.8     34.177     34.681
REMARK  4 active torsions:
REMARK  status: ('A' for Active; 'I' for Inactive)
REMARK    1  A    between atoms: N_1  and  C_2 
REMARK    2  A    between atoms: C_2  and  C_3 
REMARK    3  A    between atoms: C_3  and  S_4 
REMARK    4  A    between atoms: S_4  and  O_7 
ROOT
ATOM      1  C   UNL d   1      -4.450   6.434   5.092  0.00  0.00     0.185 C 
ENDROOT
BRANCH   1   2
ATOM      2  C   UNL d   1      -5.406   7.526   4.653  0.00  0.00     0.283 C 
BRANCH   2   3
ATOM      3  N   UNL d   1      -6.792   7.114   4.890  0.00  0.00     0.079 N 
ATOM      4  H   UNL d   1      -6.844   6.094   4.896  0.00  0.00     0.312 HD
ATOM      5  H   UNL d   1      -7.385   7.416   4.116  0.00  0.00     0.312 HD
ENDBRANCH   2   3
ENDBRANCH   1   2
BRANCH   1   6
ATOM      6  S   UNL d   1      -4.624   4.989   4.066  0.00  0.00     0.095 S 
ATOM      7  O   UNL d   1      -5.307   5.346   2.841  0.00  0.00    -0.601 OA
ATOM      8  O   UNL d   1      -3.402   4.225   4.085  0.00  0.00    -0.601 OA
BRANCH   6   9
ATOM      9  O   UNL d   1      -5.717   4.231   4.980  0.00  0.00    -0.296 OA
ATOM     10  H   UNL d   1      -5.436   3.298   5.099  0.00  0.00     0.232 HD
ENDBRANCH   6   9
ENDBRANCH   1   6
TORSDOF 4
ENDMDL
MODEL 9
REMARK VINA RESULT:      -3.7     50.017     50.521
REMARK  4 active torsions:
REMARK  status: ('A' for Active; 'I' for Inactive)
REMARK    1  A    between atoms: N_1  and  C_2 
REMARK    2  A    between atoms: C_2  and  C_3 
REMARK    3  A    between atoms: C_3  and  S_4 
REMARK    4  A    between atoms: S_4  and  O_7 
ROOT
ATOM      1  C   UNL d   1     -20.820  12.810   0.909  0.00  0.00     0.185 C 
ENDROOT
BRANCH   1   2
ATOM      2  C   UNL d   1     -21.946  12.343   0.007  0.00  0.00     0.283 C 
BRANCH   2   3
ATOM      3  N   UNL d   1     -23.095  13.245   0.121  0.00  0.00     0.079 N 
ATOM      4  H   UNL d   1     -22.803  14.106   0.586  0.00  0.00     0.312 HD
ATOM      5  H   UNL d   1     -23.806  12.831   0.725  0.00  0.00     0.312 HD
ENDBRANCH   2   3
ENDBRANCH   1   2
BRANCH   1   6
ATOM      6  S   UNL d   1     -20.712  14.587   0.920  0.00  0.00     0.095 S 
ATOM      7  O   UNL d   1     -20.765  15.083  -0.439  0.00  0.00    -0.601 OA
ATOM      8  O   UNL d   1     -21.532  15.121   1.979  0.00  0.00    -0.601 OA
BRANCH   6   9
ATOM      9  O   UNL d   1     -19.166  14.687   1.370  0.00  0.00    -0.296 OA
ATOM     10  H   UNL d   1     -19.002  14.033   2.083  0.00  0.00     0.232 HD
ENDBRANCH   6   9
ENDBRANCH   1   6
TORSDOF 4
ENDMDL
